
*** ChampSim Multicore Out-of-Order Simulator ***

Warmup Instructions: 1000000
Simulation Instructions: 100000000
Number of CPUs: 1
LLC sets: 2048
LLC ways: 16
Off-chip DRAM Size: 4096 MB Channels: 1 Width: 64-bit Data Rate: 3200 MT/s

CPU 0 runs /home/sonqo/Desktop/Diplom/traces_gap/450.soplex-s0.trace.gz
CPU 0 Bimodal branch predictor
CPU 0 STLB -- Distance Prefetcher (DP)

Warmup complete CPU 0 instructions: 1000001 cycles: 483154 (Simulation time: 0 hr 0 min 1 sec) 

Heartbeat CPU 0 instructions: 10000003 cycles: 30103025 heartbeat IPC: 0.332193 cumulative IPC: 0.30385 (Simulation time: 0 hr 0 min 23 sec) 
Heartbeat CPU 0 instructions: 20000002 cycles: 69003192 heartbeat IPC: 0.257068 cumulative IPC: 0.277291 (Simulation time: 0 hr 0 min 50 sec) 
Heartbeat CPU 0 instructions: 30000003 cycles: 100918026 heartbeat IPC: 0.313334 cumulative IPC: 0.288744 (Simulation time: 0 hr 1 min 14 sec) 
Heartbeat CPU 0 instructions: 40000000 cycles: 130766485 heartbeat IPC: 0.335026 cumulative IPC: 0.299348 (Simulation time: 0 hr 1 min 38 sec) 
Heartbeat CPU 0 instructions: 50000003 cycles: 163448237 heartbeat IPC: 0.305981 cumulative IPC: 0.300678 (Simulation time: 0 hr 2 min 4 sec) 
Heartbeat CPU 0 instructions: 60000003 cycles: 194438874 heartbeat IPC: 0.322678 cumulative IPC: 0.304193 (Simulation time: 0 hr 2 min 27 sec) 
Heartbeat CPU 0 instructions: 70000000 cycles: 225745443 heartbeat IPC: 0.319422 cumulative IPC: 0.30631 (Simulation time: 0 hr 2 min 52 sec) 
Heartbeat CPU 0 instructions: 80000003 cycles: 257638294 heartbeat IPC: 0.31355 cumulative IPC: 0.307208 (Simulation time: 0 hr 3 min 17 sec) 
Heartbeat CPU 0 instructions: 90000003 cycles: 290583199 heartbeat IPC: 0.303537 cumulative IPC: 0.306791 (Simulation time: 0 hr 3 min 42 sec) 
Heartbeat CPU 0 instructions: 100000002 cycles: 321696634 heartbeat IPC: 0.321405 cumulative IPC: 0.308206 (Simulation time: 0 hr 4 min 7 sec) 
Finished CPU 0 instructions: 100000002 cycles: 323871956 cumulative IPC: 0.308764 (Simulation time: 0 hr 4 min 9 sec) 

ChampSim completed all CPUs

Region of Interest Statistics

CPU 0 cumulative IPC: 0.308764 instructions: 100000002 cycles: 323871956
L1D TOTAL     ACCESS:   20776958  HIT:   14744894  MISS:    6032064
L1D LOAD      ACCESS:   14658048  HIT:    9500702  MISS:    5157346
L1D RFO       ACCESS:    6118910  HIT:    5244192  MISS:     874718
L1D PREFETCH  ACCESS:          0  HIT:          0  MISS:          0
L1D WRITEBACK ACCESS:          0  HIT:          0  MISS:          0
L1D PREFETCH  REQUESTED:          0  ISSUED:          0  USEFUL:          0  USELESS:          0
L1D AVERAGE MISS LATENCY: 142.901 cycles
L1I TOTAL     ACCESS:   25171175  HIT:   25169959  MISS:       1216
L1I LOAD      ACCESS:   25171175  HIT:   25169959  MISS:       1216
L1I RFO       ACCESS:          0  HIT:          0  MISS:          0
L1I PREFETCH  ACCESS:          0  HIT:          0  MISS:          0
L1I WRITEBACK ACCESS:          0  HIT:          0  MISS:          0
L1I PREFETCH  REQUESTED:          0  ISSUED:          0  USEFUL:          0  USELESS:          0
L1I AVERAGE MISS LATENCY: 209.573 cycles
L2C TOTAL     ACCESS:    8741178  HIT:    4265966  MISS:    4475212
L2C LOAD      ACCESS:    5157779  HIT:    1395934  MISS:    3761845
L2C RFO       ACCESS:     874630  HIT:     161341  MISS:     713289
L2C PREFETCH  ACCESS:          0  HIT:          0  MISS:          0
L2C WRITEBACK ACCESS:    2708769  HIT:    2708691  MISS:         78
L2C PREFETCH  REQUESTED:          0  ISSUED:          0  USEFUL:          0  USELESS:          0
L2C AVERAGE MISS LATENCY: 175.991 cycles
ITLB TOTAL     ACCESS:   21602186  HIT:   21602144  MISS:         42
ITLB LOAD      ACCESS:   21602186  HIT:   21602144  MISS:         42
ITLB RFO       ACCESS:          0  HIT:          0  MISS:          0
ITLB PREFETCH  ACCESS:          0  HIT:          0  MISS:          0
ITLB WRITEBACK ACCESS:          0  HIT:          0  MISS:          0
ITLB PREFETCH  REQUESTED:          0  ISSUED:          0  USEFUL:          0  USELESS:          0
ITLB AVERAGE MISS LATENCY: 243.595 cycles
DTLB TOTAL     ACCESS:   22634599  HIT:   21776045  MISS:     858554
DTLB LOAD      ACCESS:   17190819  HIT:   16513741  MISS:     677078
DTLB RFO       ACCESS:    5443780  HIT:    5262304  MISS:     181476
DTLB PREFETCH  ACCESS:          0  HIT:          0  MISS:          0
DTLB WRITEBACK ACCESS:          0  HIT:          0  MISS:          0
DTLB PREFETCH  REQUESTED:          0  ISSUED:          0  USEFUL:          0  USELESS:          0
DTLB AVERAGE MISS LATENCY: 12.8229 cycles
STLB TOTAL     ACCESS:     858596  HIT:     845846  MISS:      12750
STLB LOAD      ACCESS:     677120  HIT:     666102  MISS:      11018
STLB RFO       ACCESS:     181476  HIT:     179744  MISS:       1732
STLB PREFETCH  ACCESS:          0  HIT:          0  MISS:          0
STLB WRITEBACK ACCESS:          0  HIT:          0  MISS:          0
STLB PREFETCH  REQUESTED:       9600  ISSUED:          0  USEFUL:          0  USELESS:          0
STLB AVERAGE MISS LATENCY: 225.622 cycles
LLC TOTAL     ACCESS:    6326854  HIT:    2919915  MISS:    3406939
LLC LOAD      ACCESS:    3761843  HIT:     822142  MISS:    2939701
LLC RFO       ACCESS:     713289  HIT:     246411  MISS:     466878
LLC PREFETCH  ACCESS:          0  HIT:          0  MISS:          0
LLC WRITEBACK ACCESS:    1851722  HIT:    1851362  MISS:        360
LLC PREFETCH  REQUESTED:          0  ISSUED:          0  USEFUL:          0  USELESS:          0
LLC AVERAGE MISS LATENCY: 206.854 cycles
Major fault: 0 Minor fault: 13177

*******************************************
CPU 0 STLB -- Distance Prefetcher final stats
*******************************************

-------------------------------------------
D-STLB MISSES: 12708
I-STLB MISSES: 42
-------------------------------------------

-------------------------------------------
PQ hits: 0
PQ misses: 12708
-------------------------------------------

DRAM Statistics
 CHANNEL 0
 RQ ROW_BUFFER_HIT:     789916  ROW_BUFFER_MISS:    2615631
 DBUS_CONGESTED:    2058597
 WQ ROW_BUFFER_HIT:     618379  ROW_BUFFER_MISS:     748142  FULL:          0

 AVG_CONGESTED_CYCLE: 6

CPU 0 Branch Prediction Accuracy: 95.7082% MPKI: 9.09733 Average ROB Occupancy at Mispredict: 53.4042

Branch types
NOT_BRANCH: 78803223 78.8032%
BRANCH_DIRECT_JUMP: 250739 0.250739%
BRANCH_INDIRECT: 70 7e-05%
BRANCH_CONDITIONAL: 20903653 20.9037%
BRANCH_DIRECT_CALL: 20928 0.020928%
BRANCH_INDIRECT_CALL: 222 0.000222%
BRANCH_RETURN: 21149 0.021149%
BRANCH_OTHER: 0 0%

