
*** ChampSim Multicore Out-of-Order Simulator ***

Warmup Instructions: 1000000
Simulation Instructions: 100000000
Number of CPUs: 1
LLC sets: 2048
LLC ways: 16
Off-chip DRAM Size: 4096 MB Channels: 1 Width: 64-bit Data Rate: 3200 MT/s

CPU 0 runs /home/sonqo/Desktop/Diplom/traces_gap/450.soplex-s0.trace.gz
CPU 0 Bimodal branch predictor
CPU 0 STLB -- Distance Prefetcher (DP)

Warmup complete CPU 0 instructions: 1000001 cycles: 483154 (Simulation time: 0 hr 0 min 0 sec) 

Heartbeat CPU 0 instructions: 10000003 cycles: 30536363 heartbeat IPC: 0.327479 cumulative IPC: 0.299469 (Simulation time: 0 hr 0 min 21 sec) 
Heartbeat CPU 0 instructions: 20000002 cycles: 71275652 heartbeat IPC: 0.245463 cumulative IPC: 0.26839 (Simulation time: 0 hr 0 min 45 sec) 
Heartbeat CPU 0 instructions: 30000003 cycles: 105822517 heartbeat IPC: 0.289462 cumulative IPC: 0.275301 (Simulation time: 0 hr 1 min 6 sec) 
Heartbeat CPU 0 instructions: 40000000 cycles: 136129941 heartbeat IPC: 0.329952 cumulative IPC: 0.287511 (Simulation time: 0 hr 1 min 27 sec) 
Heartbeat CPU 0 instructions: 50000003 cycles: 169401387 heartbeat IPC: 0.300558 cumulative IPC: 0.290081 (Simulation time: 0 hr 1 min 49 sec) 
Heartbeat CPU 0 instructions: 60000003 cycles: 201091533 heartbeat IPC: 0.315556 cumulative IPC: 0.294105 (Simulation time: 0 hr 2 min 10 sec) 
Heartbeat CPU 0 instructions: 70000000 cycles: 233132777 heartbeat IPC: 0.312098 cumulative IPC: 0.296583 (Simulation time: 0 hr 2 min 32 sec) 
Heartbeat CPU 0 instructions: 80000003 cycles: 265719443 heartbeat IPC: 0.306874 cumulative IPC: 0.297848 (Simulation time: 0 hr 2 min 53 sec) 
Heartbeat CPU 0 instructions: 90000003 cycles: 299493503 heartbeat IPC: 0.296085 cumulative IPC: 0.297649 (Simulation time: 0 hr 3 min 15 sec) 
Heartbeat CPU 0 instructions: 100000002 cycles: 331245406 heartbeat IPC: 0.314942 cumulative IPC: 0.299309 (Simulation time: 0 hr 3 min 36 sec) 
Finished CPU 0 instructions: 100000002 cycles: 333406367 cumulative IPC: 0.299934 (Simulation time: 0 hr 3 min 37 sec) 

ChampSim completed all CPUs

Region of Interest Statistics

CPU 0 cumulative IPC: 0.299934 instructions: 100000002 cycles: 333406367
L1D TOTAL     ACCESS:   20763382  HIT:   14725139  MISS:    6038243
L1D LOAD      ACCESS:   14645356  HIT:    9482497  MISS:    5162859
L1D RFO       ACCESS:    6118026  HIT:    5242642  MISS:     875384
L1D PREFETCH  ACCESS:          0  HIT:          0  MISS:          0
L1D WRITEBACK ACCESS:          0  HIT:          0  MISS:          0
L1D PREFETCH  REQUESTED:          0  ISSUED:          0  USEFUL:          0  USELESS:          0
  real:          0  USELESS:          0
L1D AVERAGE MISS LATENCY: 140.304 cycles
L1I TOTAL     ACCESS:   25152297  HIT:   25151081  MISS:       1216
L1I LOAD      ACCESS:   25152297  HIT:   25151081  MISS:       1216
L1I RFO       ACCESS:          0  HIT:          0  MISS:          0
L1I PREFETCH  ACCESS:          0  HIT:          0  MISS:          0
L1I WRITEBACK ACCESS:          0  HIT:          0  MISS:          0
L1I PREFETCH  REQUESTED:          0  ISSUED:          0  USEFUL:          0  USELESS:          0
  real:          0  USELESS:          0
L1I AVERAGE MISS LATENCY: 225.022 cycles
L2C TOTAL     ACCESS:    8715329  HIT:    4234382  MISS:    4480947
L2C LOAD      ACCESS:    5163312  HIT:    1396588  MISS:    3766724
L2C RFO       ACCESS:     875296  HIT:     161152  MISS:     714144
L2C PREFETCH  ACCESS:          0  HIT:          0  MISS:          0
L2C WRITEBACK ACCESS:    2676721  HIT:    2676642  MISS:         79
L2C PREFETCH  REQUESTED:          0  ISSUED:          0  USEFUL:          0  USELESS:          0
  real:          0  USELESS:          0
L2C AVERAGE MISS LATENCY: 170.07 cycles
ITLB TOTAL     ACCESS:   21603548  HIT:   21603506  MISS:         42
ITLB LOAD      ACCESS:   21603548  HIT:   21603506  MISS:         42
ITLB RFO       ACCESS:          0  HIT:          0  MISS:          0
ITLB PREFETCH  ACCESS:          0  HIT:          0  MISS:          0
ITLB WRITEBACK ACCESS:          0  HIT:          0  MISS:          0
ITLB PREFETCH  REQUESTED:          0  ISSUED:          0  USEFUL:          0  USELESS:          0
  real:          0  USELESS:          0
ITLB AVERAGE MISS LATENCY: 243.595 cycles
DTLB TOTAL     ACCESS:   22622349  HIT:   21763816  MISS:     858533
DTLB LOAD      ACCESS:   17181001  HIT:   16503894  MISS:     677107
DTLB RFO       ACCESS:    5441348  HIT:    5259922  MISS:     181426
DTLB PREFETCH  ACCESS:          0  HIT:          0  MISS:          0
DTLB WRITEBACK ACCESS:          0  HIT:          0  MISS:          0
DTLB PREFETCH  REQUESTED:          0  ISSUED:          0  USEFUL:          0  USELESS:          0
  real:          0  USELESS:          0
DTLB AVERAGE MISS LATENCY: 44.12 cycles
STLB TOTAL     ACCESS:     858575  HIT:     730739  MISS:     127836
STLB LOAD      ACCESS:     677149  HIT:     558328  MISS:     118821
STLB RFO       ACCESS:     181426  HIT:     172411  MISS:       9015
STLB PREFETCH  ACCESS:          0  HIT:          0  MISS:          0
STLB WRITEBACK ACCESS:          0  HIT:          0  MISS:          0
STLB PREFETCH  REQUESTED:      92014  ISSUED:      50857  USEFUL:          0  USELESS:          0
  real:      19176  USELESS:          0
STLB AVERAGE MISS LATENCY: 207.817 cycles
LLC TOTAL     ACCESS:    6286116  HIT:    2850973  MISS:    3435143
LLC LOAD      ACCESS:    3766722  HIT:     804307  MISS:    2962415
LLC RFO       ACCESS:     714144  HIT:     241770  MISS:     472374
LLC PREFETCH  ACCESS:          0  HIT:          0  MISS:          0
LLC WRITEBACK ACCESS:    1805250  HIT:    1804896  MISS:        354
LLC PREFETCH  REQUESTED:          0  ISSUED:          0  USEFUL:          0  USELESS:          0
  real:          0  USELESS:          0
LLC AVERAGE MISS LATENCY: 190.772 cycles
Major fault: 0 Minor fault: 13177

*******************************************
CPU 0 STLB -- Distance Prefetcher final stats
*******************************************

-------------------------------------------
D-STLB MISSES: 127794
I-STLB MISSES: 42
-------------------------------------------

-------------------------------------------
PQ hits: 0
PQ misses: 127794
-------------------------------------------

DRAM Statistics
 CHANNEL 0
 RQ ROW_BUFFER_HIT:     872751  ROW_BUFFER_MISS:    2561278
 DBUS_CONGESTED:    1945682
 WQ ROW_BUFFER_HIT:     510385  ROW_BUFFER_MISS:     809122  FULL:          0

 AVG_CONGESTED_CYCLE: 6

CPU 0 Branch Prediction Accuracy: 95.7082% MPKI: 9.09733 Average ROB Occupancy at Mispredict: 53.1008

Branch types
NOT_BRANCH: 78803223 78.8032%
BRANCH_DIRECT_JUMP: 250739 0.250739%
BRANCH_INDIRECT: 70 7e-05%
BRANCH_CONDITIONAL: 20903653 20.9037%
BRANCH_DIRECT_CALL: 20928 0.020928%
BRANCH_INDIRECT_CALL: 222 0.000222%
BRANCH_RETURN: 21149 0.021149%
BRANCH_OTHER: 0 0%

