
*** ChampSim Multicore Out-of-Order Simulator ***

Warmup Instructions: 1000000
Simulation Instructions: 100000000
Number of CPUs: 1
LLC sets: 2048
LLC ways: 16
Off-chip DRAM Size: 4096 MB Channels: 1 Width: 64-bit Data Rate: 3200 MT/s

CPU 0 runs /home/sonqo/Desktop/Diplom/traces_gap/bfs-10.trace.gz
CPU 0 Bimodal branch predictor
CPU 0 STLB -- Distance Prefetcher (DP)

Warmup complete CPU 0 instructions: 1000001 cycles: 517683 (Simulation time: 0 hr 0 min 1 sec) 

Heartbeat CPU 0 instructions: 10000002 cycles: 30667595 heartbeat IPC: 0.326077 cumulative IPC: 0.298508 (Simulation time: 0 hr 0 min 11 sec) 
Heartbeat CPU 0 instructions: 20000000 cycles: 66233510 heartbeat IPC: 0.281168 cumulative IPC: 0.289124 (Simulation time: 0 hr 0 min 26 sec) 
Heartbeat CPU 0 instructions: 30000002 cycles: 101578001 heartbeat IPC: 0.28293 cumulative IPC: 0.286957 (Simulation time: 0 hr 0 min 41 sec) 
Heartbeat CPU 0 instructions: 40000003 cycles: 136868988 heartbeat IPC: 0.283358 cumulative IPC: 0.286026 (Simulation time: 0 hr 0 min 56 sec) 
Heartbeat CPU 0 instructions: 50000000 cycles: 172210172 heartbeat IPC: 0.282956 cumulative IPC: 0.285394 (Simulation time: 0 hr 1 min 11 sec) 
Heartbeat CPU 0 instructions: 60000001 cycles: 218451452 heartbeat IPC: 0.216257 cumulative IPC: 0.270724 (Simulation time: 0 hr 1 min 31 sec) 
Heartbeat CPU 0 instructions: 70000003 cycles: 274558706 heartbeat IPC: 0.17823 cumulative IPC: 0.251787 (Simulation time: 0 hr 1 min 50 sec) 
Heartbeat CPU 0 instructions: 80000002 cycles: 317321945 heartbeat IPC: 0.233846 cumulative IPC: 0.249365 (Simulation time: 0 hr 2 min 4 sec) 
Heartbeat CPU 0 instructions: 90000000 cycles: 329180912 heartbeat IPC: 0.843244 cumulative IPC: 0.270794 (Simulation time: 0 hr 2 min 12 sec) 
Heartbeat CPU 0 instructions: 100000000 cycles: 346485909 heartbeat IPC: 0.577868 cumulative IPC: 0.286153 (Simulation time: 0 hr 2 min 24 sec) 
Finished CPU 0 instructions: 100000000 cycles: 349307014 cumulative IPC: 0.286281 (Simulation time: 0 hr 2 min 25 sec) 

ChampSim completed all CPUs

Region of Interest Statistics

CPU 0 cumulative IPC: 0.286281 instructions: 100000000 cycles: 349307014
L1D TOTAL     ACCESS:   20953552  HIT:   17179919  MISS:    3773633
L1D LOAD      ACCESS:   18402387  HIT:   14721168  MISS:    3681219
L1D RFO       ACCESS:    2551165  HIT:    2458751  MISS:      92414
L1D PREFETCH  ACCESS:          0  HIT:          0  MISS:          0
L1D WRITEBACK ACCESS:          0  HIT:          0  MISS:          0
L1D PREFETCH  REQUESTED:          0  ISSUED:          0  USEFUL:          0  USELESS:          0
  real:          0  USELESS:          0
L1D AVERAGE MISS LATENCY: 66.5067 cycles
L1I TOTAL     ACCESS:   28780990  HIT:   28780938  MISS:         52
L1I LOAD      ACCESS:   28780990  HIT:   28780938  MISS:         52
L1I RFO       ACCESS:          0  HIT:          0  MISS:          0
L1I PREFETCH  ACCESS:          0  HIT:          0  MISS:          0
L1I WRITEBACK ACCESS:          0  HIT:          0  MISS:          0
L1I PREFETCH  REQUESTED:          0  ISSUED:          0  USEFUL:          0  USELESS:          0
  real:          0  USELESS:          0
L1I AVERAGE MISS LATENCY: 212.558 cycles
L2C TOTAL     ACCESS:    4003307  HIT:    2473655  MISS:    1529652
L2C LOAD      ACCESS:    3681271  HIT:    2238658  MISS:    1442613
L2C RFO       ACCESS:      92414  HIT:       5380  MISS:      87034
L2C PREFETCH  ACCESS:          0  HIT:          0  MISS:          0
L2C WRITEBACK ACCESS:     229622  HIT:     229617  MISS:          5
L2C PREFETCH  REQUESTED:          0  ISSUED:          0  USEFUL:          0  USELESS:          0
  real:          0  USELESS:          0
L2C AVERAGE MISS LATENCY: 132.773 cycles
ITLB TOTAL     ACCESS:   19829243  HIT:   19829242  MISS:          1
ITLB LOAD      ACCESS:   19829243  HIT:   19829242  MISS:          1
ITLB RFO       ACCESS:          0  HIT:          0  MISS:          0
ITLB PREFETCH  ACCESS:          0  HIT:          0  MISS:          0
ITLB WRITEBACK ACCESS:          0  HIT:          0  MISS:          0
ITLB PREFETCH  REQUESTED:          0  ISSUED:          0  USEFUL:          0  USELESS:          0
  real:          0  USELESS:          0
ITLB AVERAGE MISS LATENCY: 233 cycles
DTLB TOTAL     ACCESS:   21317172  HIT:   21235015  MISS:      82157
DTLB LOAD      ACCESS:   18721944  HIT:   18641853  MISS:      80091
DTLB RFO       ACCESS:    2595228  HIT:    2593162  MISS:       2066
DTLB PREFETCH  ACCESS:          0  HIT:          0  MISS:          0
DTLB WRITEBACK ACCESS:          0  HIT:          0  MISS:          0
DTLB PREFETCH  REQUESTED:          0  ISSUED:          0  USEFUL:          0  USELESS:          0
  real:          0  USELESS:          0
DTLB AVERAGE MISS LATENCY: 218.499 cycles
STLB TOTAL     ACCESS:      82158  HIT:      10900  MISS:      71258
STLB LOAD      ACCESS:      80092  HIT:      10068  MISS:      70024
STLB RFO       ACCESS:       2066  HIT:        832  MISS:       1234
STLB PREFETCH  ACCESS:          0  HIT:          0  MISS:          0
STLB WRITEBACK ACCESS:          0  HIT:          0  MISS:          0
STLB PREFETCH  REQUESTED:      94869  ISSUED:      29796  USEFUL:          0  USELESS:          0
  real:       8950  USELESS:          0
STLB AVERAGE MISS LATENCY: 223.714 cycles
LLC TOTAL     ACCESS:    1749380  HIT:     247260  MISS:    1502120
LLC LOAD      ACCESS:    1442613  HIT:      29994  MISS:    1412619
LLC RFO       ACCESS:      87034  HIT:        553  MISS:      86481
LLC PREFETCH  ACCESS:          0  HIT:          0  MISS:          0
LLC WRITEBACK ACCESS:     219733  HIT:     216713  MISS:       3020
LLC PREFETCH  REQUESTED:          0  ISSUED:          0  USEFUL:          0  USELESS:          0
  real:          0  USELESS:          0
LLC AVERAGE MISS LATENCY: 115.831 cycles
Major fault: 0 Minor fault: 27079

*******************************************
CPU 0 STLB -- Distance Prefetcher final stats
*******************************************

-------------------------------------------
D-STLB MISSES: 71257
I-STLB MISSES: 1
-------------------------------------------

-------------------------------------------
PQ hits: 0
PQ misses: 71257
-------------------------------------------

DRAM Statistics
 CHANNEL 0
 RQ ROW_BUFFER_HIT:     707890  ROW_BUFFER_MISS:     791210
 DBUS_CONGESTED:      82969
 WQ ROW_BUFFER_HIT:      69181  ROW_BUFFER_MISS:     141157  FULL:          0

 AVG_CONGESTED_CYCLE: 4

CPU 0 Branch Prediction Accuracy: 85.9708% MPKI: 30.3935 Average ROB Occupancy at Mispredict: 9.79656

Branch types
NOT_BRANCH: 78335520 78.3355%
BRANCH_DIRECT_JUMP: 3686 0.003686%
BRANCH_INDIRECT: 1 1e-06%
BRANCH_CONDITIONAL: 21660579 21.6606%
BRANCH_DIRECT_CALL: 104 0.000104%
BRANCH_INDIRECT_CALL: 3 3e-06%
BRANCH_RETURN: 107 0.000107%
BRANCH_OTHER: 0 0%

