
*** ChampSim Multicore Out-of-Order Simulator ***

Warmup Instructions: 1000000
Simulation Instructions: 100000000
Number of CPUs: 1
LLC sets: 2048
LLC ways: 16
Off-chip DRAM Size: 4096 MB Channels: 1 Width: 64-bit Data Rate: 3200 MT/s

CPU 0 runs /home/sonqo/Desktop/Diplom/traces_gap/bfs-10.trace.gz
CPU 0 Bimodal branch predictor
CPU 0 STLB -- Distance Prefetcher (DP)

Warmup complete CPU 0 instructions: 1000001 cycles: 517683 (Simulation time: 0 hr 0 min 1 sec) 

Heartbeat CPU 0 instructions: 10000002 cycles: 30667595 heartbeat IPC: 0.326077 cumulative IPC: 0.298508 (Simulation time: 0 hr 0 min 11 sec) 
Heartbeat CPU 0 instructions: 20000000 cycles: 66191591 heartbeat IPC: 0.2815 cumulative IPC: 0.289308 (Simulation time: 0 hr 0 min 28 sec) 
Heartbeat CPU 0 instructions: 30000002 cycles: 101536024 heartbeat IPC: 0.28293 cumulative IPC: 0.287077 (Simulation time: 0 hr 0 min 45 sec) 
Heartbeat CPU 0 instructions: 40000003 cycles: 136826944 heartbeat IPC: 0.283359 cumulative IPC: 0.286114 (Simulation time: 0 hr 1 min 0 sec) 
Heartbeat CPU 0 instructions: 50000000 cycles: 172167879 heartbeat IPC: 0.282958 cumulative IPC: 0.285464 (Simulation time: 0 hr 1 min 15 sec) 
Heartbeat CPU 0 instructions: 60000001 cycles: 218073697 heartbeat IPC: 0.217837 cumulative IPC: 0.271195 (Simulation time: 0 hr 1 min 32 sec) 
Heartbeat CPU 0 instructions: 70000003 cycles: 273438890 heartbeat IPC: 0.180619 cumulative IPC: 0.25282 (Simulation time: 0 hr 1 min 51 sec) 
Heartbeat CPU 0 instructions: 80000002 cycles: 316987211 heartbeat IPC: 0.22963 cumulative IPC: 0.249629 (Simulation time: 0 hr 2 min 4 sec) 
Heartbeat CPU 0 instructions: 90000000 cycles: 328909456 heartbeat IPC: 0.838768 cumulative IPC: 0.271018 (Simulation time: 0 hr 2 min 11 sec) 
Heartbeat CPU 0 instructions: 100000000 cycles: 347042900 heartbeat IPC: 0.551467 cumulative IPC: 0.285693 (Simulation time: 0 hr 2 min 23 sec) 
Finished CPU 0 instructions: 100000000 cycles: 350172192 cumulative IPC: 0.285574 (Simulation time: 0 hr 2 min 25 sec) 

ChampSim completed all CPUs

Region of Interest Statistics

CPU 0 cumulative IPC: 0.285574 instructions: 100000000 cycles: 350172192
L1D TOTAL     ACCESS:   20921586  HIT:   17148534  MISS:    3773052
L1D LOAD      ACCESS:   18398730  HIT:   14718091  MISS:    3680639
L1D RFO       ACCESS:    2522856  HIT:    2430443  MISS:      92413
L1D PREFETCH  ACCESS:          0  HIT:          0  MISS:          0
L1D WRITEBACK ACCESS:          0  HIT:          0  MISS:          0
L1D PREFETCH  REQUESTED:          0  ISSUED:          0  USEFUL:          0  USELESS:          0
L1D AVERAGE MISS LATENCY: 67.9476 cycles
L1I TOTAL     ACCESS:   28783175  HIT:   28783123  MISS:         52
L1I LOAD      ACCESS:   28783175  HIT:   28783123  MISS:         52
L1I RFO       ACCESS:          0  HIT:          0  MISS:          0
L1I PREFETCH  ACCESS:          0  HIT:          0  MISS:          0
L1I WRITEBACK ACCESS:          0  HIT:          0  MISS:          0
L1I PREFETCH  REQUESTED:          0  ISSUED:          0  USEFUL:          0  USELESS:          0
L1I AVERAGE MISS LATENCY: 219.231 cycles
L2C TOTAL     ACCESS:    4003785  HIT:    2474214  MISS:    1529571
L2C LOAD      ACCESS:    3680691  HIT:    2238018  MISS:    1442673
L2C RFO       ACCESS:      92413  HIT:       5519  MISS:      86894
L2C PREFETCH  ACCESS:          0  HIT:          0  MISS:          0
L2C WRITEBACK ACCESS:     230681  HIT:     230677  MISS:          4
L2C PREFETCH  REQUESTED:          0  ISSUED:          0  USEFUL:          0  USELESS:          0
L2C AVERAGE MISS LATENCY: 136.537 cycles
ITLB TOTAL     ACCESS:   19831253  HIT:   19831252  MISS:          1
ITLB LOAD      ACCESS:   19831253  HIT:   19831252  MISS:          1
ITLB RFO       ACCESS:          0  HIT:          0  MISS:          0
ITLB PREFETCH  ACCESS:          0  HIT:          0  MISS:          0
ITLB WRITEBACK ACCESS:          0  HIT:          0  MISS:          0
ITLB PREFETCH  REQUESTED:          0  ISSUED:          0  USEFUL:          0  USELESS:          0
ITLB AVERAGE MISS LATENCY: 233 cycles
DTLB TOTAL     ACCESS:   21294888  HIT:   21212731  MISS:      82157
DTLB LOAD      ACCESS:   18699546  HIT:   18619455  MISS:      80091
DTLB RFO       ACCESS:    2595342  HIT:    2593276  MISS:       2066
DTLB PREFETCH  ACCESS:          0  HIT:          0  MISS:          0
DTLB WRITEBACK ACCESS:          0  HIT:          0  MISS:          0
DTLB PREFETCH  REQUESTED:          0  ISSUED:          0  USEFUL:          0  USELESS:          0
DTLB AVERAGE MISS LATENCY: 176.659 cycles
STLB TOTAL     ACCESS:      82158  HIT:      23988  MISS:      58170
STLB LOAD      ACCESS:      80092  HIT:      23090  MISS:      57002
STLB RFO       ACCESS:       2066  HIT:        898  MISS:       1168
STLB PREFETCH  ACCESS:          0  HIT:          0  MISS:          0
STLB WRITEBACK ACCESS:          0  HIT:          0  MISS:          0
STLB PREFETCH  REQUESTED:      70630  ISSUED:          0  USEFUL:      13335  USELESS:       3977
STLB AVERAGE MISS LATENCY: 221.776 cycles
LLC TOTAL     ACCESS:    1750851  HIT:     247865  MISS:    1502986
LLC LOAD      ACCESS:    1442673  HIT:      29246  MISS:    1413427
LLC RFO       ACCESS:      86894  HIT:        418  MISS:      86476
LLC PREFETCH  ACCESS:          0  HIT:          0  MISS:          0
LLC WRITEBACK ACCESS:     221284  HIT:     218201  MISS:       3083
LLC PREFETCH  REQUESTED:          0  ISSUED:          0  USEFUL:          0  USELESS:          0
LLC AVERAGE MISS LATENCY: 119.723 cycles
Major fault: 0 Minor fault: 27079

*******************************************
CPU 0 STLB -- Distance Prefetcher final stats
*******************************************

-------------------------------------------
D-STLB MISSES: 58169
I-STLB MISSES: 1
-------------------------------------------

-------------------------------------------
PQ hits: 0
PQ misses: 58169
-------------------------------------------

DRAM Statistics
 CHANNEL 0
 RQ ROW_BUFFER_HIT:     651930  ROW_BUFFER_MISS:     847973
 DBUS_CONGESTED:      80451
 WQ ROW_BUFFER_HIT:      71430  ROW_BUFFER_MISS:     140428  FULL:          0

 AVG_CONGESTED_CYCLE: 4

CPU 0 Branch Prediction Accuracy: 85.9708% MPKI: 30.3935 Average ROB Occupancy at Mispredict: 9.79939

Branch types
NOT_BRANCH: 78335520 78.3355%
BRANCH_DIRECT_JUMP: 3686 0.003686%
BRANCH_INDIRECT: 1 1e-06%
BRANCH_CONDITIONAL: 21660579 21.6606%
BRANCH_DIRECT_CALL: 104 0.000104%
BRANCH_INDIRECT_CALL: 3 3e-06%
BRANCH_RETURN: 107 0.000107%
BRANCH_OTHER: 0 0%

