
*** ChampSim Multicore Out-of-Order Simulator ***

Warmup Instructions: 1000000
Simulation Instructions: 100000000
Number of CPUs: 1
LLC sets: 2048
LLC ways: 16
Off-chip DRAM Size: 4096 MB Channels: 1 Width: 64-bit Data Rate: 3200 MT/s

CPU 0 runs /home/sonqo/Desktop/Diplom/traces_gap/bfs-8.trace.gz
CPU 0 Bimodal branch predictor
CPU 0 STLB from_file prefetcher(simple)

Warmup complete CPU 0 instructions: 1000001 cycles: 517375 (Simulation time: 0 hr 0 min 1 sec) 

Heartbeat CPU 0 instructions: 10000002 cycles: 30898498 heartbeat IPC: 0.32364 cumulative IPC: 0.296237 (Simulation time: 0 hr 0 min 11 sec) 
Heartbeat CPU 0 instructions: 20000000 cycles: 76662045 heartbeat IPC: 0.218514 cumulative IPC: 0.249525 (Simulation time: 0 hr 0 min 28 sec) 
Heartbeat CPU 0 instructions: 30000000 cycles: 123332906 heartbeat IPC: 0.214266 cumulative IPC: 0.236126 (Simulation time: 0 hr 0 min 45 sec) 
Heartbeat CPU 0 instructions: 40000000 cycles: 171203922 heartbeat IPC: 0.208895 cumulative IPC: 0.228489 (Simulation time: 0 hr 1 min 0 sec) 
Heartbeat CPU 0 instructions: 50000001 cycles: 207059241 heartbeat IPC: 0.278899 cumulative IPC: 0.23724 (Simulation time: 0 hr 1 min 12 sec) 
Heartbeat CPU 0 instructions: 60000000 cycles: 227433686 heartbeat IPC: 0.490811 cumulative IPC: 0.260008 (Simulation time: 0 hr 1 min 21 sec) 
Heartbeat CPU 0 instructions: 70000000 cycles: 249111395 heartbeat IPC: 0.461303 cumulative IPC: 0.277561 (Simulation time: 0 hr 1 min 33 sec) 
Heartbeat CPU 0 instructions: 80000000 cycles: 287354650 heartbeat IPC: 0.261484 cumulative IPC: 0.275417 (Simulation time: 0 hr 1 min 47 sec) 
Heartbeat CPU 0 instructions: 90000000 cycles: 333791653 heartbeat IPC: 0.215346 cumulative IPC: 0.267047 (Simulation time: 0 hr 2 min 2 sec) 
Heartbeat CPU 0 instructions: 100000000 cycles: 380255657 heartbeat IPC: 0.21522 cumulative IPC: 0.260706 (Simulation time: 0 hr 2 min 18 sec) 
Finished CPU 0 instructions: 100000001 cycles: 384383675 cumulative IPC: 0.260157 (Simulation time: 0 hr 2 min 19 sec) 

ChampSim completed all CPUs

Region of Interest Statistics

CPU 0 cumulative IPC: 0.260157 instructions: 100000001 cycles: 384383675
L1D TOTAL     ACCESS:   24039982  HIT:   20965093  MISS:    3074889
L1D LOAD      ACCESS:   19415471  HIT:   16497064  MISS:    2918407
L1D RFO       ACCESS:    4624511  HIT:    4468029  MISS:     156482
L1D PREFETCH  ACCESS:          0  HIT:          0  MISS:          0
L1D WRITEBACK ACCESS:          0  HIT:          0  MISS:          0
L1D PREFETCH  REQUESTED:          0  ISSUED:          0  USEFUL:          0  USELESS:          0
  real:          0  fills:          0
L1D AVERAGE MISS LATENCY: 104.182 cycles
L1I TOTAL     ACCESS:   28118188  HIT:   28118134  MISS:         54
L1I LOAD      ACCESS:   28118188  HIT:   28118134  MISS:         54
L1I RFO       ACCESS:          0  HIT:          0  MISS:          0
L1I PREFETCH  ACCESS:          0  HIT:          0  MISS:          0
L1I WRITEBACK ACCESS:          0  HIT:          0  MISS:          0
L1I PREFETCH  REQUESTED:          0  ISSUED:          0  USEFUL:          0  USELESS:          0
  real:          0  fills:          0
L1I AVERAGE MISS LATENCY: 222.704 cycles
L2C TOTAL     ACCESS:    3522170  HIT:    1501878  MISS:    2020292
L2C LOAD      ACCESS:    2918460  HIT:    1050285  MISS:    1868175
L2C RFO       ACCESS:     156482  HIT:       4375  MISS:     152107
L2C PREFETCH  ACCESS:          0  HIT:          0  MISS:          0
L2C WRITEBACK ACCESS:     447228  HIT:     447218  MISS:         10
L2C PREFETCH  REQUESTED:          0  ISSUED:          0  USEFUL:          0  USELESS:          0
  real:          0  fills:          0
L2C AVERAGE MISS LATENCY: 139.606 cycles
ITLB TOTAL     ACCESS:   19567784  HIT:   19567783  MISS:          1
ITLB LOAD      ACCESS:   19567784  HIT:   19567783  MISS:          1
ITLB RFO       ACCESS:          0  HIT:          0  MISS:          0
ITLB PREFETCH  ACCESS:          0  HIT:          0  MISS:          0
ITLB WRITEBACK ACCESS:          0  HIT:          0  MISS:          0
ITLB PREFETCH  REQUESTED:          0  ISSUED:          0  USEFUL:          0  USELESS:          0
  real:          0  fills:          0
ITLB AVERAGE MISS LATENCY: 233 cycles
DTLB TOTAL     ACCESS:   23191999  HIT:   23001817  MISS:     190182
DTLB LOAD      ACCESS:   18625705  HIT:   18441891  MISS:     183814
DTLB RFO       ACCESS:    4566294  HIT:    4559926  MISS:       6368
DTLB PREFETCH  ACCESS:          0  HIT:          0  MISS:          0
DTLB WRITEBACK ACCESS:          0  HIT:          0  MISS:          0
DTLB PREFETCH  REQUESTED:          0  ISSUED:          0  USEFUL:          0  USELESS:          0
  real:          0  fills:          0
DTLB AVERAGE MISS LATENCY: 74.8968 cycles
STLB TOTAL     ACCESS:     190183  HIT:      81828  MISS:     108355
STLB LOAD      ACCESS:     183815  HIT:      77730  MISS:     106085
STLB RFO       ACCESS:       6368  HIT:       4098  MISS:       2270
STLB PREFETCH  ACCESS:          0  HIT:          0  MISS:          0
STLB WRITEBACK ACCESS:          0  HIT:          0  MISS:          0
STLB PREFETCH  REQUESTED:      81832  ISSUED:      57064  USEFUL:          0  USELESS:          0
  real:      53124  fills:          0
STLB AVERAGE MISS LATENCY: 108.221 cycles
LLC TOTAL     ACCESS:    2427973  HIT:     541941  MISS:    1886032
LLC LOAD      ACCESS:    1868175  HIT:     132534  MISS:    1735641
LLC RFO       ACCESS:     152107  HIT:       3698  MISS:     148409
LLC PREFETCH  ACCESS:          0  HIT:          0  MISS:          0
LLC WRITEBACK ACCESS:     407691  HIT:     405709  MISS:       1982
LLC PREFETCH  REQUESTED:          0  ISSUED:          0  USEFUL:          0  USELESS:          0
  real:          0  fills:          0
LLC AVERAGE MISS LATENCY: 128.075 cycles
Major fault: 0 Minor fault: 27017

*******************************************
CPU 0 STLB -- Sequential L2-TLB Prefetcher final stats
*******************************************

-------------------------------------------
D-STLB MISSES: 108354
I-STLB MISSES: 1
-------------------------------------------

-------------------------------------------
PQ hits: 57063
PQ misses: 51291
-------------------------------------------

DRAM Statistics
 CHANNEL 0
 RQ ROW_BUFFER_HIT:     756315  ROW_BUFFER_MISS:    1127728
 DBUS_CONGESTED:     212139
 WQ ROW_BUFFER_HIT:     135988  ROW_BUFFER_MISS:     243906  FULL:          0

 AVG_CONGESTED_CYCLE: 5

CPU 0 Branch Prediction Accuracy: 83.3555% MPKI: 33.058 Average ROB Occupancy at Mispredict: 8.67438

Branch types
NOT_BRANCH: 80138728 80.1387%
BRANCH_DIRECT_JUMP: 38588 0.038588%
BRANCH_INDIRECT: 1 1e-06%
BRANCH_CONDITIONAL: 19822356 19.8224%
BRANCH_DIRECT_CALL: 157 0.000157%
BRANCH_INDIRECT_CALL: 3 3e-06%
BRANCH_RETURN: 160 0.00016%
BRANCH_OTHER: 0 0%

