
*** ChampSim Multicore Out-of-Order Simulator ***

Warmup Instructions: 1000000
Simulation Instructions: 100000000
Number of CPUs: 1
LLC sets: 2048
LLC ways: 16
Off-chip DRAM Size: 4096 MB Channels: 1 Width: 64-bit Data Rate: 3200 MT/s

CPU 0 runs /home/sonqo/Desktop/Diplom/traces_gap/bfs-10.trace.gz
CPU 0 Bimodal branch predictor
CPU 0 STLB from_file prefetcher(simple)

Warmup complete CPU 0 instructions: 1000001 cycles: 517683 (Simulation time: 0 hr 0 min 1 sec) 

Heartbeat CPU 0 instructions: 10000002 cycles: 30667279 heartbeat IPC: 0.326081 cumulative IPC: 0.298512 (Simulation time: 0 hr 0 min 11 sec) 
Heartbeat CPU 0 instructions: 20000000 cycles: 66020984 heartbeat IPC: 0.282856 cumulative IPC: 0.290062 (Simulation time: 0 hr 0 min 25 sec) 
Heartbeat CPU 0 instructions: 30000002 cycles: 101220369 heartbeat IPC: 0.284096 cumulative IPC: 0.287976 (Simulation time: 0 hr 0 min 38 sec) 
Heartbeat CPU 0 instructions: 40000003 cycles: 136368725 heartbeat IPC: 0.284508 cumulative IPC: 0.287079 (Simulation time: 0 hr 0 min 51 sec) 
Heartbeat CPU 0 instructions: 50000000 cycles: 171567146 heartbeat IPC: 0.284104 cumulative IPC: 0.286467 (Simulation time: 0 hr 1 min 4 sec) 
Heartbeat CPU 0 instructions: 60000001 cycles: 216078023 heartbeat IPC: 0.224664 cumulative IPC: 0.273705 (Simulation time: 0 hr 1 min 20 sec) 
Heartbeat CPU 0 instructions: 70000003 cycles: 269023309 heartbeat IPC: 0.188874 cumulative IPC: 0.256978 (Simulation time: 0 hr 1 min 36 sec) 
Heartbeat CPU 0 instructions: 80000002 cycles: 310437872 heartbeat IPC: 0.241461 cumulative IPC: 0.254904 (Simulation time: 0 hr 1 min 48 sec) 
Heartbeat CPU 0 instructions: 90000000 cycles: 322226468 heartbeat IPC: 0.848277 cumulative IPC: 0.276648 (Simulation time: 0 hr 1 min 54 sec) 
Heartbeat CPU 0 instructions: 100000000 cycles: 338643871 heartbeat IPC: 0.60911 cumulative IPC: 0.29279 (Simulation time: 0 hr 2 min 5 sec) 
Finished CPU 0 instructions: 100000000 cycles: 341408898 cumulative IPC: 0.292904 (Simulation time: 0 hr 2 min 6 sec) 

ChampSim completed all CPUs

Region of Interest Statistics

CPU 0 cumulative IPC: 0.292904 instructions: 100000000 cycles: 341408898
L1D TOTAL     ACCESS:   20953855  HIT:   17182446  MISS:    3771409
L1D LOAD      ACCESS:   18401452  HIT:   14722456  MISS:    3678996
L1D RFO       ACCESS:    2552403  HIT:    2459990  MISS:      92413
L1D PREFETCH  ACCESS:          0  HIT:          0  MISS:          0
L1D WRITEBACK ACCESS:          0  HIT:          0  MISS:          0
L1D PREFETCH  REQUESTED:          0  ISSUED:          0  USEFUL:          0  USELESS:          0
  real:          0  fills:          0
L1D AVERAGE MISS LATENCY: 66.218 cycles
L1I TOTAL     ACCESS:   28781666  HIT:   28781614  MISS:         52
L1I LOAD      ACCESS:   28781666  HIT:   28781614  MISS:         52
L1I RFO       ACCESS:          0  HIT:          0  MISS:          0
L1I PREFETCH  ACCESS:          0  HIT:          0  MISS:          0
L1I WRITEBACK ACCESS:          0  HIT:          0  MISS:          0
L1I PREFETCH  REQUESTED:          0  ISSUED:          0  USEFUL:          0  USELESS:          0
  real:          0  fills:          0
L1I AVERAGE MISS LATENCY: 214.519 cycles
L2C TOTAL     ACCESS:    4003781  HIT:    2477352  MISS:    1526429
L2C LOAD      ACCESS:    3679048  HIT:    2239420  MISS:    1439628
L2C RFO       ACCESS:      92413  HIT:       5617  MISS:      86796
L2C PREFETCH  ACCESS:          0  HIT:          0  MISS:          0
L2C WRITEBACK ACCESS:     232320  HIT:     232315  MISS:          5
L2C PREFETCH  REQUESTED:          0  ISSUED:          0  USEFUL:          0  USELESS:          0
  real:          0  fills:          0
L2C AVERAGE MISS LATENCY: 132.933 cycles
ITLB TOTAL     ACCESS:   19830270  HIT:   19830269  MISS:          1
ITLB LOAD      ACCESS:   19830270  HIT:   19830269  MISS:          1
ITLB RFO       ACCESS:          0  HIT:          0  MISS:          0
ITLB PREFETCH  ACCESS:          0  HIT:          0  MISS:          0
ITLB WRITEBACK ACCESS:          0  HIT:          0  MISS:          0
ITLB PREFETCH  REQUESTED:          0  ISSUED:          0  USEFUL:          0  USELESS:          0
  real:          0  fills:          0
ITLB AVERAGE MISS LATENCY: 233 cycles
DTLB TOTAL     ACCESS:   21307474  HIT:   21225317  MISS:      82157
DTLB LOAD      ACCESS:   18712241  HIT:   18632149  MISS:      80092
DTLB RFO       ACCESS:    2595233  HIT:    2593168  MISS:       2065
DTLB PREFETCH  ACCESS:          0  HIT:          0  MISS:          0
DTLB WRITEBACK ACCESS:          0  HIT:          0  MISS:          0
DTLB PREFETCH  REQUESTED:          0  ISSUED:          0  USEFUL:          0  USELESS:          0
  real:          0  fills:          0
DTLB AVERAGE MISS LATENCY: 105.919 cycles
STLB TOTAL     ACCESS:      82158  HIT:      10900  MISS:      71258
STLB LOAD      ACCESS:      80093  HIT:      10069  MISS:      70024
STLB RFO       ACCESS:       2065  HIT:        831  MISS:       1234
STLB PREFETCH  ACCESS:          0  HIT:          0  MISS:          0
STLB WRITEBACK ACCESS:          0  HIT:          0  MISS:          0
STLB PREFETCH  REQUESTED:      64428  ISSUED:      39282  USEFUL:          0  USELESS:          0
  real:      37264  fills:          0
STLB AVERAGE MISS LATENCY: 109.014 cycles
LLC TOTAL     ACCESS:    1750984  HIT:     249375  MISS:    1501609
LLC LOAD      ACCESS:    1439628  HIT:      27659  MISS:    1411969
LLC RFO       ACCESS:      86796  HIT:        323  MISS:      86473
LLC PREFETCH  ACCESS:          0  HIT:          0  MISS:          0
LLC WRITEBACK ACCESS:     224560  HIT:     221393  MISS:       3167
LLC PREFETCH  REQUESTED:          0  ISSUED:          0  USEFUL:          0  USELESS:          0
  real:          0  fills:          0
LLC AVERAGE MISS LATENCY: 116.249 cycles
Major fault: 0 Minor fault: 27079

*******************************************
CPU 0 STLB -- Sequential L2-TLB Prefetcher final stats
*******************************************

-------------------------------------------
D-STLB MISSES: 71257
I-STLB MISSES: 1
-------------------------------------------

-------------------------------------------
PQ hits: 39072
PQ misses: 32185
-------------------------------------------

DRAM Statistics
 CHANNEL 0
 RQ ROW_BUFFER_HIT:     702285  ROW_BUFFER_MISS:     796156
 DBUS_CONGESTED:      85056
 WQ ROW_BUFFER_HIT:      75246  ROW_BUFFER_MISS:     141223  FULL:          0

 AVG_CONGESTED_CYCLE: 4

CPU 0 Branch Prediction Accuracy: 85.9708% MPKI: 30.3935 Average ROB Occupancy at Mispredict: 9.7969

Branch types
NOT_BRANCH: 78335520 78.3355%
BRANCH_DIRECT_JUMP: 3686 0.003686%
BRANCH_INDIRECT: 1 1e-06%
BRANCH_CONDITIONAL: 21660579 21.6606%
BRANCH_DIRECT_CALL: 104 0.000104%
BRANCH_INDIRECT_CALL: 3 3e-06%
BRANCH_RETURN: 107 0.000107%
BRANCH_OTHER: 0 0%

