
*** ChampSim Multicore Out-of-Order Simulator ***

Warmup Instructions: 1000000
Simulation Instructions: 100000000
Number of CPUs: 1
LLC sets: 2048
LLC ways: 16
Off-chip DRAM Size: 4096 MB Channels: 1 Width: 64-bit Data Rate: 3200 MT/s

CPU 0 runs /home/sonqo/Desktop/Diplom/traces_gap/bfs-10.trace.gz
CPU 0 Bimodal branch predictor
CPU 0 STLB from_file prefetcher(simple)

Warmup complete CPU 0 instructions: 1000001 cycles: 517683 (Simulation time: 0 hr 0 min 0 sec) 

Heartbeat CPU 0 instructions: 10000002 cycles: 30667279 heartbeat IPC: 0.326081 cumulative IPC: 0.298512 (Simulation time: 0 hr 0 min 10 sec) 
Heartbeat CPU 0 instructions: 20000000 cycles: 66019468 heartbeat IPC: 0.282868 cumulative IPC: 0.290068 (Simulation time: 0 hr 0 min 23 sec) 
Heartbeat CPU 0 instructions: 30000002 cycles: 101225147 heartbeat IPC: 0.284045 cumulative IPC: 0.287963 (Simulation time: 0 hr 0 min 37 sec) 
Heartbeat CPU 0 instructions: 40000003 cycles: 136378400 heartbeat IPC: 0.284469 cumulative IPC: 0.287059 (Simulation time: 0 hr 0 min 51 sec) 
Heartbeat CPU 0 instructions: 50000000 cycles: 171580104 heartbeat IPC: 0.284077 cumulative IPC: 0.286445 (Simulation time: 0 hr 1 min 4 sec) 
Heartbeat CPU 0 instructions: 60000001 cycles: 216092202 heartbeat IPC: 0.224658 cumulative IPC: 0.273687 (Simulation time: 0 hr 1 min 20 sec) 
Heartbeat CPU 0 instructions: 70000003 cycles: 269030755 heartbeat IPC: 0.188898 cumulative IPC: 0.256971 (Simulation time: 0 hr 1 min 36 sec) 
Heartbeat CPU 0 instructions: 80000002 cycles: 310440897 heartbeat IPC: 0.241487 cumulative IPC: 0.254902 (Simulation time: 0 hr 1 min 49 sec) 
Heartbeat CPU 0 instructions: 90000000 cycles: 322230034 heartbeat IPC: 0.848238 cumulative IPC: 0.276645 (Simulation time: 0 hr 1 min 55 sec) 
Heartbeat CPU 0 instructions: 100000000 cycles: 338557220 heartbeat IPC: 0.612475 cumulative IPC: 0.292865 (Simulation time: 0 hr 2 min 6 sec) 
Finished CPU 0 instructions: 100000000 cycles: 341322667 cumulative IPC: 0.292978 (Simulation time: 0 hr 2 min 8 sec) 

ChampSim completed all CPUs

Region of Interest Statistics

CPU 0 cumulative IPC: 0.292978 instructions: 100000000 cycles: 341322667
L1D TOTAL     ACCESS:   20954151  HIT:   17182688  MISS:    3771463
L1D LOAD      ACCESS:   18401754  HIT:   14722703  MISS:    3679051
L1D RFO       ACCESS:    2552397  HIT:    2459985  MISS:      92412
L1D PREFETCH  ACCESS:          0  HIT:          0  MISS:          0
L1D WRITEBACK ACCESS:          0  HIT:          0  MISS:          0
L1D PREFETCH  REQUESTED:          0  ISSUED:          0  USEFUL:          0  USELESS:          0
  real:          0  fills:          0
L1D AVERAGE MISS LATENCY: 66.1695 cycles
L1I TOTAL     ACCESS:   28781365  HIT:   28781313  MISS:         52
L1I LOAD      ACCESS:   28781365  HIT:   28781313  MISS:         52
L1I RFO       ACCESS:          0  HIT:          0  MISS:          0
L1I PREFETCH  ACCESS:          0  HIT:          0  MISS:          0
L1I WRITEBACK ACCESS:          0  HIT:          0  MISS:          0
L1I PREFETCH  REQUESTED:          0  ISSUED:          0  USEFUL:          0  USELESS:          0
  real:          0  fills:          0
L1I AVERAGE MISS LATENCY: 198.615 cycles
L2C TOTAL     ACCESS:    4003807  HIT:    2477338  MISS:    1526469
L2C LOAD      ACCESS:    3679103  HIT:    2239441  MISS:    1439662
L2C RFO       ACCESS:      92412  HIT:       5610  MISS:      86802
L2C PREFETCH  ACCESS:          0  HIT:          0  MISS:          0
L2C WRITEBACK ACCESS:     232292  HIT:     232287  MISS:          5
L2C PREFETCH  REQUESTED:          0  ISSUED:          0  USEFUL:          0  USELESS:          0
  real:          0  fills:          0
L2C AVERAGE MISS LATENCY: 132.854 cycles
ITLB TOTAL     ACCESS:   19830043  HIT:   19830042  MISS:          1
ITLB LOAD      ACCESS:   19830043  HIT:   19830042  MISS:          1
ITLB RFO       ACCESS:          0  HIT:          0  MISS:          0
ITLB PREFETCH  ACCESS:          0  HIT:          0  MISS:          0
ITLB WRITEBACK ACCESS:          0  HIT:          0  MISS:          0
ITLB PREFETCH  REQUESTED:          0  ISSUED:          0  USEFUL:          0  USELESS:          0
  real:          0  fills:          0
ITLB AVERAGE MISS LATENCY: 233 cycles
DTLB TOTAL     ACCESS:   21309324  HIT:   21227169  MISS:      82155
DTLB LOAD      ACCESS:   18714018  HIT:   18633928  MISS:      80090
DTLB RFO       ACCESS:    2595306  HIT:    2593241  MISS:       2065
DTLB PREFETCH  ACCESS:          0  HIT:          0  MISS:          0
DTLB WRITEBACK ACCESS:          0  HIT:          0  MISS:          0
DTLB PREFETCH  REQUESTED:          0  ISSUED:          0  USEFUL:          0  USELESS:          0
  real:          0  fills:          0
DTLB AVERAGE MISS LATENCY: 104.482 cycles
STLB TOTAL     ACCESS:      82156  HIT:      10898  MISS:      71258
STLB LOAD      ACCESS:      80091  HIT:      10066  MISS:      70025
STLB RFO       ACCESS:       2065  HIT:        832  MISS:       1233
STLB PREFETCH  ACCESS:          0  HIT:          0  MISS:          0
STLB WRITEBACK ACCESS:          0  HIT:          0  MISS:          0
STLB PREFETCH  REQUESTED:      63805  ISSUED:      39085  USEFUL:          0  USELESS:          0
  real:      37585  fills:          0
STLB AVERAGE MISS LATENCY: 107.48 cycles
LLC TOTAL     ACCESS:    1751010  HIT:     249413  MISS:    1501597
LLC LOAD      ACCESS:    1439662  HIT:      27711  MISS:    1411951
LLC RFO       ACCESS:      86802  HIT:        327  MISS:      86475
LLC PREFETCH  ACCESS:          0  HIT:          0  MISS:          0
LLC WRITEBACK ACCESS:     224546  HIT:     221375  MISS:       3171
LLC PREFETCH  REQUESTED:          0  ISSUED:          0  USEFUL:          0  USELESS:          0
  real:          0  fills:          0
LLC AVERAGE MISS LATENCY: 116.207 cycles
Major fault: 0 Minor fault: 27079

*******************************************
CPU 0 STLB -- Sequential L2-TLB Prefetcher final stats
*******************************************

-------------------------------------------
D-STLB MISSES: 71257
I-STLB MISSES: 1
-------------------------------------------

-------------------------------------------
PQ hits: 39063
PQ misses: 32194
-------------------------------------------

DRAM Statistics
 CHANNEL 0
 RQ ROW_BUFFER_HIT:     703131  ROW_BUFFER_MISS:     795294
 DBUS_CONGESTED:      84951
 WQ ROW_BUFFER_HIT:      75255  ROW_BUFFER_MISS:     141209  FULL:          0

 AVG_CONGESTED_CYCLE: 4

CPU 0 Branch Prediction Accuracy: 85.9708% MPKI: 30.3935 Average ROB Occupancy at Mispredict: 9.79702

Branch types
NOT_BRANCH: 78335520 78.3355%
BRANCH_DIRECT_JUMP: 3686 0.003686%
BRANCH_INDIRECT: 1 1e-06%
BRANCH_CONDITIONAL: 21660579 21.6606%
BRANCH_DIRECT_CALL: 104 0.000104%
BRANCH_INDIRECT_CALL: 3 3e-06%
BRANCH_RETURN: 107 0.000107%
BRANCH_OTHER: 0 0%

