
*** ChampSim Multicore Out-of-Order Simulator ***

Warmup Instructions: 1000000
Simulation Instructions: 100000000
Number of CPUs: 1
LLC sets: 2048
LLC ways: 16
Off-chip DRAM Size: 4096 MB Channels: 1 Width: 64-bit Data Rate: 3200 MT/s

CPU 0 runs /home/sonqo/Desktop/Diplom/traces_gap/bfs-3.trace.gz
CPU 0 Bimodal branch predictor
CPU 0 STLB -- Sequential Prefetcher (SP)

Warmup complete CPU 0 instructions: 1000001 cycles: 517706 (Simulation time: 0 hr 0 min 1 sec) 

Heartbeat CPU 0 instructions: 10000000 cycles: 30823992 heartbeat IPC: 0.324423 cumulative IPC: 0.296968 (Simulation time: 0 hr 0 min 11 sec) 
Heartbeat CPU 0 instructions: 20000002 cycles: 73865873 heartbeat IPC: 0.232332 cumulative IPC: 0.259039 (Simulation time: 0 hr 0 min 25 sec) 
Heartbeat CPU 0 instructions: 30000001 cycles: 117303588 heartbeat IPC: 0.230215 cumulative IPC: 0.248318 (Simulation time: 0 hr 0 min 39 sec) 
Heartbeat CPU 0 instructions: 40000001 cycles: 160698148 heartbeat IPC: 0.230444 cumulative IPC: 0.243475 (Simulation time: 0 hr 0 min 53 sec) 
Heartbeat CPU 0 instructions: 50000000 cycles: 213324761 heartbeat IPC: 0.190018 cumulative IPC: 0.230256 (Simulation time: 0 hr 1 min 9 sec) 
Heartbeat CPU 0 instructions: 60000000 cycles: 273136554 heartbeat IPC: 0.167191 cumulative IPC: 0.216419 (Simulation time: 0 hr 1 min 26 sec) 
Heartbeat CPU 0 instructions: 70000000 cycles: 314305667 heartbeat IPC: 0.242901 cumulative IPC: 0.219894 (Simulation time: 0 hr 1 min 38 sec) 
Heartbeat CPU 0 instructions: 80000001 cycles: 325235109 heartbeat IPC: 0.91496 cumulative IPC: 0.243288 (Simulation time: 0 hr 1 min 45 sec) 
Heartbeat CPU 0 instructions: 90000001 cycles: 347883940 heartbeat IPC: 0.441524 cumulative IPC: 0.256214 (Simulation time: 0 hr 1 min 58 sec) 
Heartbeat CPU 0 instructions: 100000001 cycles: 392539103 heartbeat IPC: 0.223938 cumulative IPC: 0.252537 (Simulation time: 0 hr 2 min 14 sec) 
Finished CPU 0 instructions: 100000002 cycles: 397228270 cumulative IPC: 0.251744 (Simulation time: 0 hr 2 min 17 sec) 

ChampSim completed all CPUs

Region of Interest Statistics

CPU 0 cumulative IPC: 0.251744 instructions: 100000002 cycles: 397228270
L1D TOTAL     ACCESS:   21760573  HIT:   18445620  MISS:    3314953
L1D LOAD      ACCESS:   18160930  HIT:   15002995  MISS:    3157935
L1D RFO       ACCESS:    3599643  HIT:    3442625  MISS:     157018
L1D PREFETCH  ACCESS:          0  HIT:          0  MISS:          0
L1D WRITEBACK ACCESS:          0  HIT:          0  MISS:          0
L1D PREFETCH  REQUESTED:          0  ISSUED:          0  USEFUL:          0  USELESS:          0
L1D AVERAGE MISS LATENCY: 94.0218 cycles
L1I TOTAL     ACCESS:   28567526  HIT:   28567472  MISS:         54
L1I LOAD      ACCESS:   28567526  HIT:   28567472  MISS:         54
L1I RFO       ACCESS:          0  HIT:          0  MISS:          0
L1I PREFETCH  ACCESS:          0  HIT:          0  MISS:          0
L1I WRITEBACK ACCESS:          0  HIT:          0  MISS:          0
L1I PREFETCH  REQUESTED:          0  ISSUED:          0  USEFUL:          0  USELESS:          0
L1I AVERAGE MISS LATENCY: 225.352 cycles
L2C TOTAL     ACCESS:    3739623  HIT:    1823073  MISS:    1916550
L2C LOAD      ACCESS:    3157989  HIT:    1392263  MISS:    1765726
L2C RFO       ACCESS:     157018  HIT:       6205  MISS:     150813
L2C PREFETCH  ACCESS:          0  HIT:          0  MISS:          0
L2C WRITEBACK ACCESS:     424616  HIT:     424605  MISS:         11
L2C PREFETCH  REQUESTED:          0  ISSUED:          0  USEFUL:          0  USELESS:          0
L2C AVERAGE MISS LATENCY: 141.087 cycles
ITLB TOTAL     ACCESS:   19465747  HIT:   19465746  MISS:          1
ITLB LOAD      ACCESS:   19465747  HIT:   19465746  MISS:          1
ITLB RFO       ACCESS:          0  HIT:          0  MISS:          0
ITLB PREFETCH  ACCESS:          0  HIT:          0  MISS:          0
ITLB WRITEBACK ACCESS:          0  HIT:          0  MISS:          0
ITLB PREFETCH  REQUESTED:          0  ISSUED:          0  USEFUL:          0  USELESS:          0
ITLB AVERAGE MISS LATENCY: 455 cycles
DTLB TOTAL     ACCESS:   21820548  HIT:   21692538  MISS:     128010
DTLB LOAD      ACCESS:   18095370  HIT:   17971863  MISS:     123507
DTLB RFO       ACCESS:    3725178  HIT:    3720675  MISS:       4503
DTLB PREFETCH  ACCESS:          0  HIT:          0  MISS:          0
DTLB WRITEBACK ACCESS:          0  HIT:          0  MISS:          0
DTLB PREFETCH  REQUESTED:          0  ISSUED:          0  USEFUL:          0  USELESS:          0
DTLB AVERAGE MISS LATENCY: 105.61 cycles
STLB TOTAL     ACCESS:     128011  HIT:      75750  MISS:      52261
STLB LOAD      ACCESS:     123508  HIT:      72977  MISS:      50531
STLB RFO       ACCESS:       4503  HIT:       2773  MISS:       1730
STLB PREFETCH  ACCESS:          0  HIT:          0  MISS:          0
STLB WRITEBACK ACCESS:          0  HIT:          0  MISS:          0
STLB PREFETCH  REQUESTED:      52578  ISSUED:          0  USEFUL:      18073  USELESS:       2878
STLB AVERAGE MISS LATENCY: 224.53 cycles
LLC TOTAL     ACCESS:    2331806  HIT:     585874  MISS:    1745932
LLC LOAD      ACCESS:    1765725  HIT:     166714  MISS:    1599011
LLC RFO       ACCESS:     150813  HIT:       6600  MISS:     144213
LLC PREFETCH  ACCESS:          0  HIT:          0  MISS:          0
LLC WRITEBACK ACCESS:     415268  HIT:     412560  MISS:       2708
LLC PREFETCH  REQUESTED:          0  ISSUED:          0  USEFUL:          0  USELESS:          0
LLC AVERAGE MISS LATENCY: 134.421 cycles
Major fault: 0 Minor fault: 27438

*******************************************
CPU 0 STLB -- Sequential L2-TLB Prefetcher final stats
*******************************************

-------------------------------------------
D-STLB MISSES: 52260
I-STLB MISSES: 1
-------------------------------------------

-------------------------------------------
PQ hits: 0
PQ misses: 52260
-------------------------------------------

DRAM Statistics
 CHANNEL 0
 RQ ROW_BUFFER_HIT:     563626  ROW_BUFFER_MISS:    1179571
 DBUS_CONGESTED:     206491
 WQ ROW_BUFFER_HIT:     150400  ROW_BUFFER_MISS:     220147  FULL:          0

 AVG_CONGESTED_CYCLE: 5

CPU 0 Branch Prediction Accuracy: 83.6327% MPKI: 34.7609 Average ROB Occupancy at Mispredict: 7.72666

Branch types
NOT_BRANCH: 78762028 78.762%
BRANCH_DIRECT_JUMP: 2041 0.002041%
BRANCH_INDIRECT: 1 1e-06%
BRANCH_CONDITIONAL: 21235645 21.2356%
BRANCH_DIRECT_CALL: 141 0.000141%
BRANCH_INDIRECT_CALL: 3 3e-06%
BRANCH_RETURN: 143 0.000143%
BRANCH_OTHER: 0 0%

