
*** ChampSim Multicore Out-of-Order Simulator ***

Warmup Instructions: 1000000
Simulation Instructions: 100000000
Number of CPUs: 1
LLC sets: 2048
LLC ways: 16
Off-chip DRAM Size: 4096 MB Channels: 1 Width: 64-bit Data Rate: 3200 MT/s

CPU 0 runs /home/sonqo/Desktop/Diplom/traces_gap/450.soplex-s0.trace.gz
CPU 0 Bimodal branch predictor
CPU 0 STLB -- PC/IP Based Arbitrary Stride Prefetcher (ASP)

Warmup complete CPU 0 instructions: 1000001 cycles: 483154 (Simulation time: 0 hr 0 min 0 sec) 

Heartbeat CPU 0 instructions: 10000003 cycles: 30757222 heartbeat IPC: 0.325127 cumulative IPC: 0.297284 (Simulation time: 0 hr 0 min 21 sec) 
Heartbeat CPU 0 instructions: 20000002 cycles: 71723656 heartbeat IPC: 0.244102 cumulative IPC: 0.266702 (Simulation time: 0 hr 0 min 47 sec) 
Heartbeat CPU 0 instructions: 30000003 cycles: 106298987 heartbeat IPC: 0.289224 cumulative IPC: 0.274061 (Simulation time: 0 hr 1 min 10 sec) 
Heartbeat CPU 0 instructions: 40000000 cycles: 136968926 heartbeat IPC: 0.326052 cumulative IPC: 0.285744 (Simulation time: 0 hr 1 min 33 sec) 
Heartbeat CPU 0 instructions: 50000003 cycles: 170572962 heartbeat IPC: 0.297583 cumulative IPC: 0.288083 (Simulation time: 0 hr 1 min 58 sec) 
Heartbeat CPU 0 instructions: 60000003 cycles: 202557598 heartbeat IPC: 0.31265 cumulative IPC: 0.291972 (Simulation time: 0 hr 2 min 21 sec) 
Heartbeat CPU 0 instructions: 70000000 cycles: 234925029 heartbeat IPC: 0.308952 cumulative IPC: 0.294316 (Simulation time: 0 hr 2 min 45 sec) 
Heartbeat CPU 0 instructions: 80000003 cycles: 267828384 heartbeat IPC: 0.30392 cumulative IPC: 0.295498 (Simulation time: 0 hr 3 min 7 sec) 
Heartbeat CPU 0 instructions: 90000003 cycles: 301953839 heartbeat IPC: 0.293036 cumulative IPC: 0.295219 (Simulation time: 0 hr 3 min 31 sec) 
Heartbeat CPU 0 instructions: 100000002 cycles: 333971438 heartbeat IPC: 0.312328 cumulative IPC: 0.296862 (Simulation time: 0 hr 3 min 55 sec) 
Finished CPU 0 instructions: 100000000 cycles: 336181745 cumulative IPC: 0.297458 (Simulation time: 0 hr 3 min 57 sec) 

ChampSim completed all CPUs

Region of Interest Statistics

CPU 0 cumulative IPC: 0.297458 instructions: 100000000 cycles: 336181745
L1D TOTAL     ACCESS:   20710032  HIT:   14671922  MISS:    6038110
L1D LOAD      ACCESS:   14597165  HIT:    9434408  MISS:    5162757
L1D RFO       ACCESS:    6112867  HIT:    5237514  MISS:     875353
L1D PREFETCH  ACCESS:          0  HIT:          0  MISS:          0
L1D WRITEBACK ACCESS:          0  HIT:          0  MISS:          0
L1D PREFETCH  REQUESTED:          0  ISSUED:          0  USEFUL:          0  USELESS:          0
L1D AVERAGE MISS LATENCY: 142.686 cycles
L1I TOTAL     ACCESS:   25166527  HIT:   25165311  MISS:       1216
L1I LOAD      ACCESS:   25166527  HIT:   25165311  MISS:       1216
L1I RFO       ACCESS:          0  HIT:          0  MISS:          0
L1I PREFETCH  ACCESS:          0  HIT:          0  MISS:          0
L1I WRITEBACK ACCESS:          0  HIT:          0  MISS:          0
L1I PREFETCH  REQUESTED:          0  ISSUED:          0  USEFUL:          0  USELESS:          0
L1I AVERAGE MISS LATENCY: 225.925 cycles
L2C TOTAL     ACCESS:    8717123  HIT:    4234781  MISS:    4482342
L2C LOAD      ACCESS:    5163200  HIT:    1395964  MISS:    3767236
L2C RFO       ACCESS:     875261  HIT:     160235  MISS:     715026
L2C PREFETCH  ACCESS:          0  HIT:          0  MISS:          0
L2C WRITEBACK ACCESS:    2678662  HIT:    2678582  MISS:         80
L2C PREFETCH  REQUESTED:          0  ISSUED:          0  USEFUL:          0  USELESS:          0
L2C AVERAGE MISS LATENCY: 173.57 cycles
ITLB TOTAL     ACCESS:   21586960  HIT:   21586918  MISS:         42
ITLB LOAD      ACCESS:   21586960  HIT:   21586918  MISS:         42
ITLB RFO       ACCESS:          0  HIT:          0  MISS:          0
ITLB PREFETCH  ACCESS:          0  HIT:          0  MISS:          0
ITLB WRITEBACK ACCESS:          0  HIT:          0  MISS:          0
ITLB PREFETCH  REQUESTED:          0  ISSUED:          0  USEFUL:          0  USELESS:          0
ITLB AVERAGE MISS LATENCY: 243.595 cycles
DTLB TOTAL     ACCESS:   22583960  HIT:   21725434  MISS:     858526
DTLB LOAD      ACCESS:   17150729  HIT:   16473691  MISS:     677038
DTLB RFO       ACCESS:    5433231  HIT:    5251743  MISS:     181488
DTLB PREFETCH  ACCESS:          0  HIT:          0  MISS:          0
DTLB WRITEBACK ACCESS:          0  HIT:          0  MISS:          0
DTLB PREFETCH  REQUESTED:          0  ISSUED:          0  USEFUL:          0  USELESS:          0
DTLB AVERAGE MISS LATENCY: 41.4715 cycles
STLB TOTAL     ACCESS:     858568  HIT:     738286  MISS:     120282
STLB LOAD      ACCESS:     677080  HIT:     564928  MISS:     112152
STLB RFO       ACCESS:     181488  HIT:     173358  MISS:       8130
STLB PREFETCH  ACCESS:          0  HIT:          0  MISS:          0
STLB WRITEBACK ACCESS:          0  HIT:          0  MISS:          0
STLB PREFETCH  REQUESTED:      12953  ISSUED:          0  USEFUL:       7746  USELESS:        566
STLB AVERAGE MISS LATENCY: 205.237 cycles
LLC TOTAL     ACCESS:    6291594  HIT:    2847472  MISS:    3444122
LLC LOAD      ACCESS:    3767233  HIT:     798212  MISS:    2969021
LLC RFO       ACCESS:     715024  HIT:     240311  MISS:     474713
LLC PREFETCH  ACCESS:          0  HIT:          0  MISS:          0
LLC WRITEBACK ACCESS:    1809337  HIT:    1808949  MISS:        388
LLC PREFETCH  REQUESTED:          0  ISSUED:          0  USEFUL:          0  USELESS:          0
LLC AVERAGE MISS LATENCY: 196.017 cycles
Major fault: 0 Minor fault: 13177

*******************************************
CPU 0 STLB -- PC/IP Based Arbitrary Stride Prefetcher (ASP) final stats
*******************************************

-------------------------------------------
D-STLB MISSES: 120240
I-STLB MISSES: 42
-------------------------------------------

-------------------------------------------
PQ hits: 0
PQ misses: 120240
-------------------------------------------

DRAM Statistics
 CHANNEL 0
 RQ ROW_BUFFER_HIT:     779974  ROW_BUFFER_MISS:    2662976
 DBUS_CONGESTED:    1956894
 WQ ROW_BUFFER_HIT:     510380  ROW_BUFFER_MISS:     815545  FULL:          0

 AVG_CONGESTED_CYCLE: 6

CPU 0 Branch Prediction Accuracy: 95.7082% MPKI: 9.09733 Average ROB Occupancy at Mispredict: 53.3464

Branch types
NOT_BRANCH: 78803223 78.8032%
BRANCH_DIRECT_JUMP: 250739 0.250739%
BRANCH_INDIRECT: 70 7e-05%
BRANCH_CONDITIONAL: 20903653 20.9037%
BRANCH_DIRECT_CALL: 20928 0.020928%
BRANCH_INDIRECT_CALL: 222 0.000222%
BRANCH_RETURN: 21149 0.021149%
BRANCH_OTHER: 0 0%

