
*** ChampSim Multicore Out-of-Order Simulator ***

Warmup Instructions: 1000000
Simulation Instructions: 100000000
Number of CPUs: 1
LLC sets: 2048
LLC ways: 16
Off-chip DRAM Size: 4096 MB Channels: 1 Width: 64-bit Data Rate: 3200 MT/s

CPU 0 runs /home/sonqo/Desktop/Diplom/traces_gap/bfs-8.trace.gz
CPU 0 Bimodal branch predictor
CPU 0 STLB -- PC/IP Based Arbitrary Stride Prefetcher (ASP)

Warmup complete CPU 0 instructions: 1000001 cycles: 517375 (Simulation time: 0 hr 0 min 0 sec) 

Heartbeat CPU 0 instructions: 10000002 cycles: 30898490 heartbeat IPC: 0.32364 cumulative IPC: 0.296237 (Simulation time: 0 hr 0 min 10 sec) 
Heartbeat CPU 0 instructions: 20000000 cycles: 76604288 heartbeat IPC: 0.218791 cumulative IPC: 0.249714 (Simulation time: 0 hr 0 min 27 sec) 
Heartbeat CPU 0 instructions: 30000000 cycles: 123239781 heartbeat IPC: 0.214429 cumulative IPC: 0.236306 (Simulation time: 0 hr 0 min 43 sec) 
Heartbeat CPU 0 instructions: 40000000 cycles: 170712548 heartbeat IPC: 0.210647 cumulative IPC: 0.229149 (Simulation time: 0 hr 0 min 58 sec) 
Heartbeat CPU 0 instructions: 50000001 cycles: 205887757 heartbeat IPC: 0.284291 cumulative IPC: 0.238593 (Simulation time: 0 hr 1 min 9 sec) 
Heartbeat CPU 0 instructions: 60000000 cycles: 223679531 heartbeat IPC: 0.562057 cumulative IPC: 0.264382 (Simulation time: 0 hr 1 min 20 sec) 
Heartbeat CPU 0 instructions: 70000000 cycles: 245268008 heartbeat IPC: 0.46321 cumulative IPC: 0.28192 (Simulation time: 0 hr 1 min 31 sec) 
Heartbeat CPU 0 instructions: 80000000 cycles: 283374559 heartbeat IPC: 0.262422 cumulative IPC: 0.279293 (Simulation time: 0 hr 1 min 45 sec) 
Heartbeat CPU 0 instructions: 90000000 cycles: 329533891 heartbeat IPC: 0.216641 cumulative IPC: 0.270503 (Simulation time: 0 hr 2 min 0 sec) 
Heartbeat CPU 0 instructions: 100000000 cycles: 375746332 heartbeat IPC: 0.216392 cumulative IPC: 0.263839 (Simulation time: 0 hr 2 min 15 sec) 
Finished CPU 0 instructions: 100000001 cycles: 379849349 cumulative IPC: 0.263262 (Simulation time: 0 hr 2 min 16 sec) 

ChampSim completed all CPUs

Region of Interest Statistics

CPU 0 cumulative IPC: 0.263262 instructions: 100000001 cycles: 379849349
L1D TOTAL     ACCESS:   24043328  HIT:   20969048  MISS:    3074280
L1D LOAD      ACCESS:   19416921  HIT:   16499117  MISS:    2917804
L1D RFO       ACCESS:    4626407  HIT:    4469931  MISS:     156476
L1D PREFETCH  ACCESS:          0  HIT:          0  MISS:          0
L1D WRITEBACK ACCESS:          0  HIT:          0  MISS:          0
L1D PREFETCH  REQUESTED:          0  ISSUED:          0  USEFUL:          0  USELESS:          0
L1D AVERAGE MISS LATENCY: 102.998 cycles
L1I TOTAL     ACCESS:   28119157  HIT:   28119103  MISS:         54
L1I LOAD      ACCESS:   28119157  HIT:   28119103  MISS:         54
L1I RFO       ACCESS:          0  HIT:          0  MISS:          0
L1I PREFETCH  ACCESS:          0  HIT:          0  MISS:          0
L1I WRITEBACK ACCESS:          0  HIT:          0  MISS:          0
L1I PREFETCH  REQUESTED:          0  ISSUED:          0  USEFUL:          0  USELESS:          0
L1I AVERAGE MISS LATENCY: 217.704 cycles
L2C TOTAL     ACCESS:    3522970  HIT:    1503450  MISS:    2019520
L2C LOAD      ACCESS:    2917857  HIT:    1050447  MISS:    1867410
L2C RFO       ACCESS:     156476  HIT:       4376  MISS:     152100
L2C PREFETCH  ACCESS:          0  HIT:          0  MISS:          0
L2C WRITEBACK ACCESS:     448637  HIT:     448627  MISS:         10
L2C PREFETCH  REQUESTED:          0  ISSUED:          0  USEFUL:          0  USELESS:          0
L2C AVERAGE MISS LATENCY: 138.396 cycles
ITLB TOTAL     ACCESS:   19568163  HIT:   19568162  MISS:          1
ITLB LOAD      ACCESS:   19568163  HIT:   19568162  MISS:          1
ITLB RFO       ACCESS:          0  HIT:          0  MISS:          0
ITLB PREFETCH  ACCESS:          0  HIT:          0  MISS:          0
ITLB WRITEBACK ACCESS:          0  HIT:          0  MISS:          0
ITLB PREFETCH  REQUESTED:          0  ISSUED:          0  USEFUL:          0  USELESS:          0
ITLB AVERAGE MISS LATENCY: 233 cycles
DTLB TOTAL     ACCESS:   23198483  HIT:   23008299  MISS:     190184
DTLB LOAD      ACCESS:   18630497  HIT:   18446683  MISS:     183814
DTLB RFO       ACCESS:    4567986  HIT:    4561616  MISS:       6370
DTLB PREFETCH  ACCESS:          0  HIT:          0  MISS:          0
DTLB WRITEBACK ACCESS:          0  HIT:          0  MISS:          0
DTLB PREFETCH  REQUESTED:          0  ISSUED:          0  USEFUL:          0  USELESS:          0
DTLB AVERAGE MISS LATENCY: 40.6204 cycles
STLB TOTAL     ACCESS:     190185  HIT:     163512  MISS:      26673
STLB LOAD      ACCESS:     183815  HIT:     158248  MISS:      25567
STLB RFO       ACCESS:       6370  HIT:       5264  MISS:       1106
STLB PREFETCH  ACCESS:          0  HIT:          0  MISS:          0
STLB WRITEBACK ACCESS:          0  HIT:          0  MISS:          0
STLB PREFETCH  REQUESTED:      17831  ISSUED:          0  USEFUL:          0  USELESS:          0
STLB AVERAGE MISS LATENCY: 225.124 cycles
LLC TOTAL     ACCESS:    2429910  HIT:     545006  MISS:    1884904
LLC LOAD      ACCESS:    1867409  HIT:     132883  MISS:    1734526
LLC RFO       ACCESS:     152100  HIT:       3719  MISS:     148381
LLC PREFETCH  ACCESS:          0  HIT:          0  MISS:          0
LLC WRITEBACK ACCESS:     410401  HIT:     408404  MISS:       1997
LLC PREFETCH  REQUESTED:          0  ISSUED:          0  USEFUL:          0  USELESS:          0
LLC AVERAGE MISS LATENCY: 128.678 cycles
Major fault: 0 Minor fault: 27017

*******************************************
CPU 0 STLB -- PC/IP Based Arbitrary Stride Prefetcher (ASP) final stats
*******************************************

-------------------------------------------
D-STLB MISSES: 26672
I-STLB MISSES: 1
-------------------------------------------

-------------------------------------------
PQ hits: 0
PQ misses: 26672
-------------------------------------------

DRAM Statistics
 CHANNEL 0
 RQ ROW_BUFFER_HIT:     750963  ROW_BUFFER_MISS:    1131922
 DBUS_CONGESTED:     213372
 WQ ROW_BUFFER_HIT:     140927  ROW_BUFFER_MISS:     242595  FULL:          0

 AVG_CONGESTED_CYCLE: 5

CPU 0 Branch Prediction Accuracy: 83.3555% MPKI: 33.058 Average ROB Occupancy at Mispredict: 8.67709

Branch types
NOT_BRANCH: 80138728 80.1387%
BRANCH_DIRECT_JUMP: 38588 0.038588%
BRANCH_INDIRECT: 1 1e-06%
BRANCH_CONDITIONAL: 19822356 19.8224%
BRANCH_DIRECT_CALL: 157 0.000157%
BRANCH_INDIRECT_CALL: 3 3e-06%
BRANCH_RETURN: 160 0.00016%
BRANCH_OTHER: 0 0%

