
*** ChampSim Multicore Out-of-Order Simulator ***

Warmup Instructions: 1000000
Simulation Instructions: 100000000
Number of CPUs: 1
LLC sets: 2048
LLC ways: 16
Off-chip DRAM Size: 4096 MB Channels: 1 Width: 64-bit Data Rate: 3200 MT/s

CPU 0 runs /home/sonqo/Desktop/Diplom/traces_gap/bfs-3.trace.gz
CPU 0 Bimodal branch predictor
CPU 0 STLB -- PC/IP Based Arbitrary Stride Prefetcher (ASP)

Warmup complete CPU 0 instructions: 1000001 cycles: 517706 (Simulation time: 0 hr 0 min 1 sec) 

Heartbeat CPU 0 instructions: 10000000 cycles: 30821443 heartbeat IPC: 0.324449 cumulative IPC: 0.296993 (Simulation time: 0 hr 0 min 12 sec) 
Heartbeat CPU 0 instructions: 20000002 cycles: 73286045 heartbeat IPC: 0.23549 cumulative IPC: 0.261103 (Simulation time: 0 hr 0 min 27 sec) 
Heartbeat CPU 0 instructions: 30000001 cycles: 116086757 heartbeat IPC: 0.233641 cumulative IPC: 0.250932 (Simulation time: 0 hr 0 min 42 sec) 
Heartbeat CPU 0 instructions: 40000001 cycles: 158858397 heartbeat IPC: 0.2338 cumulative IPC: 0.246304 (Simulation time: 0 hr 0 min 57 sec) 
Heartbeat CPU 0 instructions: 50000000 cycles: 209392073 heartbeat IPC: 0.197888 cumulative IPC: 0.234591 (Simulation time: 0 hr 1 min 13 sec) 
Heartbeat CPU 0 instructions: 60000000 cycles: 265485211 heartbeat IPC: 0.178275 cumulative IPC: 0.222669 (Simulation time: 0 hr 1 min 31 sec) 
Heartbeat CPU 0 instructions: 70000000 cycles: 299674397 heartbeat IPC: 0.29249 cumulative IPC: 0.230648 (Simulation time: 0 hr 1 min 42 sec) 
Heartbeat CPU 0 instructions: 80000001 cycles: 310646609 heartbeat IPC: 0.911393 cumulative IPC: 0.254733 (Simulation time: 0 hr 1 min 48 sec) 
Heartbeat CPU 0 instructions: 90000001 cycles: 331534784 heartbeat IPC: 0.47874 cumulative IPC: 0.268868 (Simulation time: 0 hr 2 min 1 sec) 
Heartbeat CPU 0 instructions: 100000001 cycles: 374193582 heartbeat IPC: 0.234418 cumulative IPC: 0.264935 (Simulation time: 0 hr 2 min 18 sec) 
Finished CPU 0 instructions: 100000002 cycles: 378786035 cumulative IPC: 0.264001 (Simulation time: 0 hr 2 min 20 sec) 

ChampSim completed all CPUs

Region of Interest Statistics

CPU 0 cumulative IPC: 0.264001 instructions: 100000002 cycles: 378786035
L1D TOTAL     ACCESS:   21824827  HIT:   18510324  MISS:    3314503
L1D LOAD      ACCESS:   18164623  HIT:   15007139  MISS:    3157484
L1D RFO       ACCESS:    3660204  HIT:    3503185  MISS:     157019
L1D PREFETCH  ACCESS:          0  HIT:          0  MISS:          0
L1D WRITEBACK ACCESS:          0  HIT:          0  MISS:          0
L1D PREFETCH  REQUESTED:          0  ISSUED:          0  USEFUL:          0  USELESS:          0
  real:          0  fills:          0
L1D AVERAGE MISS LATENCY: 86.6874 cycles
L1I TOTAL     ACCESS:   28565254  HIT:   28565200  MISS:         54
L1I LOAD      ACCESS:   28565254  HIT:   28565200  MISS:         54
L1I RFO       ACCESS:          0  HIT:          0  MISS:          0
L1I PREFETCH  ACCESS:          0  HIT:          0  MISS:          0
L1I WRITEBACK ACCESS:          0  HIT:          0  MISS:          0
L1I PREFETCH  REQUESTED:          0  ISSUED:          0  USEFUL:          0  USELESS:          0
  real:          0  fills:          0
L1I AVERAGE MISS LATENCY: 229.907 cycles
L2C TOTAL     ACCESS:    3739434  HIT:    1825819  MISS:    1913615
L2C LOAD      ACCESS:    3157538  HIT:    1394792  MISS:    1762746
L2C RFO       ACCESS:     157019  HIT:       6161  MISS:     150858
L2C PREFETCH  ACCESS:          0  HIT:          0  MISS:          0
L2C WRITEBACK ACCESS:     424877  HIT:     424866  MISS:         11
L2C PREFETCH  REQUESTED:          0  ISSUED:          0  USEFUL:          0  USELESS:          0
  real:          0  fills:          0
L2C AVERAGE MISS LATENCY: 128.547 cycles
ITLB TOTAL     ACCESS:   19464243  HIT:   19464242  MISS:          1
ITLB LOAD      ACCESS:   19464243  HIT:   19464242  MISS:          1
ITLB RFO       ACCESS:          0  HIT:          0  MISS:          0
ITLB PREFETCH  ACCESS:          0  HIT:          0  MISS:          0
ITLB WRITEBACK ACCESS:          0  HIT:          0  MISS:          0
ITLB PREFETCH  REQUESTED:          0  ISSUED:          0  USEFUL:          0  USELESS:          0
  real:          0  fills:          0
ITLB AVERAGE MISS LATENCY: 455 cycles
DTLB TOTAL     ACCESS:   21840091  HIT:   21712079  MISS:     128012
DTLB LOAD      ACCESS:   18116105  HIT:   17992593  MISS:     123512
DTLB RFO       ACCESS:    3723986  HIT:    3719486  MISS:       4500
DTLB PREFETCH  ACCESS:          0  HIT:          0  MISS:          0
DTLB WRITEBACK ACCESS:          0  HIT:          0  MISS:          0
DTLB PREFETCH  REQUESTED:          0  ISSUED:          0  USEFUL:          0  USELESS:          0
  real:          0  fills:          0
DTLB AVERAGE MISS LATENCY: 102.427 cycles
STLB TOTAL     ACCESS:     128013  HIT:      57956  MISS:      70057
STLB LOAD      ACCESS:     123513  HIT:      55656  MISS:      67857
STLB RFO       ACCESS:       4500  HIT:       2300  MISS:       2200
STLB PREFETCH  ACCESS:          0  HIT:          0  MISS:          0
STLB WRITEBACK ACCESS:          0  HIT:          0  MISS:          0
STLB PREFETCH  REQUESTED:      38418  ISSUED:      21329  USEFUL:          0  USELESS:          0
  real:      18934  fills:          0
STLB AVERAGE MISS LATENCY: 161.048 cycles
LLC TOTAL     ACCESS:    2329181  HIT:     587412  MISS:    1741769
LLC LOAD      ACCESS:    1762746  HIT:     167732  MISS:    1595014
LLC RFO       ACCESS:     150858  HIT:       6882  MISS:     143976
LLC PREFETCH  ACCESS:          0  HIT:          0  MISS:          0
LLC WRITEBACK ACCESS:     415577  HIT:     412798  MISS:       2779
LLC PREFETCH  REQUESTED:          0  ISSUED:          0  USEFUL:          0  USELESS:          0
  real:          0  fills:          0
LLC AVERAGE MISS LATENCY: 120.75 cycles
Major fault: 0 Minor fault: 27438

*******************************************
CPU 0 STLB -- PC/IP Based Arbitrary Stride Prefetcher (ASP) final stats
*******************************************

-------------------------------------------
D-STLB MISSES: 70056
I-STLB MISSES: 1
-------------------------------------------

-------------------------------------------
PQ hits: 20634
PQ misses: 49422
-------------------------------------------

DRAM Statistics
 CHANNEL 0
 RQ ROW_BUFFER_HIT:     790098  ROW_BUFFER_MISS:     948869
 DBUS_CONGESTED:     204788
 WQ ROW_BUFFER_HIT:     151804  ROW_BUFFER_MISS:     219404  FULL:          0

 AVG_CONGESTED_CYCLE: 5

CPU 0 Branch Prediction Accuracy: 83.6327% MPKI: 34.7609 Average ROB Occupancy at Mispredict: 7.71858

Branch types
NOT_BRANCH: 78762028 78.762%
BRANCH_DIRECT_JUMP: 2041 0.002041%
BRANCH_INDIRECT: 1 1e-06%
BRANCH_CONDITIONAL: 21235645 21.2356%
BRANCH_DIRECT_CALL: 141 0.000141%
BRANCH_INDIRECT_CALL: 3 3e-06%
BRANCH_RETURN: 143 0.000143%
BRANCH_OTHER: 0 0%

