
*** ChampSim Multicore Out-of-Order Simulator ***

Warmup Instructions: 1000000
Simulation Instructions: 100000000
Number of CPUs: 1
LLC sets: 2048
LLC ways: 16
Off-chip DRAM Size: 4096 MB Channels: 1 Width: 64-bit Data Rate: 3200 MT/s

CPU 0 runs /home/sonqo/Desktop/Diplom/traces_gap/bfs-10.trace.gz
CPU 0 Bimodal branch predictor
CPU 0 STLB -- PC/IP Based Arbitrary Stride Prefetcher (ASP)

Warmup complete CPU 0 instructions: 1000001 cycles: 517683 (Simulation time: 0 hr 0 min 1 sec) 

Heartbeat CPU 0 instructions: 10000002 cycles: 30667595 heartbeat IPC: 0.326077 cumulative IPC: 0.298508 (Simulation time: 0 hr 0 min 12 sec) 
Heartbeat CPU 0 instructions: 20000000 cycles: 66236396 heartbeat IPC: 0.281145 cumulative IPC: 0.289111 (Simulation time: 0 hr 0 min 27 sec) 
Heartbeat CPU 0 instructions: 30000002 cycles: 101582202 heartbeat IPC: 0.282919 cumulative IPC: 0.286945 (Simulation time: 0 hr 0 min 42 sec) 
Heartbeat CPU 0 instructions: 40000003 cycles: 136875409 heartbeat IPC: 0.283341 cumulative IPC: 0.286012 (Simulation time: 0 hr 0 min 57 sec) 
Heartbeat CPU 0 instructions: 50000000 cycles: 172217894 heartbeat IPC: 0.282945 cumulative IPC: 0.285381 (Simulation time: 0 hr 1 min 12 sec) 
Heartbeat CPU 0 instructions: 60000001 cycles: 218462530 heartbeat IPC: 0.216241 cumulative IPC: 0.270711 (Simulation time: 0 hr 1 min 28 sec) 
Heartbeat CPU 0 instructions: 70000003 cycles: 274573503 heartbeat IPC: 0.178218 cumulative IPC: 0.251774 (Simulation time: 0 hr 1 min 47 sec) 
Heartbeat CPU 0 instructions: 80000002 cycles: 317333121 heartbeat IPC: 0.233865 cumulative IPC: 0.249357 (Simulation time: 0 hr 2 min 0 sec) 
Heartbeat CPU 0 instructions: 90000000 cycles: 329191892 heartbeat IPC: 0.843258 cumulative IPC: 0.270785 (Simulation time: 0 hr 2 min 7 sec) 
Heartbeat CPU 0 instructions: 100000000 cycles: 346493066 heartbeat IPC: 0.577995 cumulative IPC: 0.286148 (Simulation time: 0 hr 2 min 19 sec) 
Finished CPU 0 instructions: 100000000 cycles: 349314171 cumulative IPC: 0.286275 (Simulation time: 0 hr 2 min 20 sec) 

ChampSim completed all CPUs

Region of Interest Statistics

CPU 0 cumulative IPC: 0.286275 instructions: 100000000 cycles: 349314171
L1D TOTAL     ACCESS:   20953540  HIT:   17179743  MISS:    3773797
L1D LOAD      ACCESS:   18402375  HIT:   14720992  MISS:    3681383
L1D RFO       ACCESS:    2551165  HIT:    2458751  MISS:      92414
L1D PREFETCH  ACCESS:          0  HIT:          0  MISS:          0
L1D WRITEBACK ACCESS:          0  HIT:          0  MISS:          0
L1D PREFETCH  REQUESTED:          0  ISSUED:          0  USEFUL:          0  USELESS:          0
  real:          0  USELESS:          0
L1D AVERAGE MISS LATENCY: 66.5029 cycles
L1I TOTAL     ACCESS:   28780986  HIT:   28780934  MISS:         52
L1I LOAD      ACCESS:   28780986  HIT:   28780934  MISS:         52
L1I RFO       ACCESS:          0  HIT:          0  MISS:          0
L1I PREFETCH  ACCESS:          0  HIT:          0  MISS:          0
L1I WRITEBACK ACCESS:          0  HIT:          0  MISS:          0
L1I PREFETCH  REQUESTED:          0  ISSUED:          0  USEFUL:          0  USELESS:          0
  real:          0  USELESS:          0
L1I AVERAGE MISS LATENCY: 212.558 cycles
L2C TOTAL     ACCESS:    4003433  HIT:    2473775  MISS:    1529658
L2C LOAD      ACCESS:    3681435  HIT:    2238816  MISS:    1442619
L2C RFO       ACCESS:      92414  HIT:       5380  MISS:      87034
L2C PREFETCH  ACCESS:          0  HIT:          0  MISS:          0
L2C WRITEBACK ACCESS:     229584  HIT:     229579  MISS:          5
L2C PREFETCH  REQUESTED:          0  ISSUED:          0  USEFUL:          0  USELESS:          0
  real:          0  USELESS:          0
L2C AVERAGE MISS LATENCY: 132.77 cycles
ITLB TOTAL     ACCESS:   19829230  HIT:   19829229  MISS:          1
ITLB LOAD      ACCESS:   19829230  HIT:   19829229  MISS:          1
ITLB RFO       ACCESS:          0  HIT:          0  MISS:          0
ITLB PREFETCH  ACCESS:          0  HIT:          0  MISS:          0
ITLB WRITEBACK ACCESS:          0  HIT:          0  MISS:          0
ITLB PREFETCH  REQUESTED:          0  ISSUED:          0  USEFUL:          0  USELESS:          0
  real:          0  USELESS:          0
ITLB AVERAGE MISS LATENCY: 233 cycles
DTLB TOTAL     ACCESS:   21317159  HIT:   21235002  MISS:      82157
DTLB LOAD      ACCESS:   18721933  HIT:   18641842  MISS:      80091
DTLB RFO       ACCESS:    2595226  HIT:    2593160  MISS:       2066
DTLB PREFETCH  ACCESS:          0  HIT:          0  MISS:          0
DTLB WRITEBACK ACCESS:          0  HIT:          0  MISS:          0
DTLB PREFETCH  REQUESTED:          0  ISSUED:          0  USEFUL:          0  USELESS:          0
  real:          0  USELESS:          0
DTLB AVERAGE MISS LATENCY: 218.523 cycles
STLB TOTAL     ACCESS:      82158  HIT:      10900  MISS:      71258
STLB LOAD      ACCESS:      80092  HIT:      10068  MISS:      70024
STLB RFO       ACCESS:       2066  HIT:        832  MISS:       1234
STLB PREFETCH  ACCESS:          0  HIT:          0  MISS:          0
STLB WRITEBACK ACCESS:          0  HIT:          0  MISS:          0
STLB PREFETCH  REQUESTED:      35299  ISSUED:      20894  USEFUL:          0  USELESS:          0
  real:       5190  USELESS:          0
STLB AVERAGE MISS LATENCY: 223.789 cycles
LLC TOTAL     ACCESS:    1749392  HIT:     247273  MISS:    1502119
LLC LOAD      ACCESS:    1442619  HIT:      30001  MISS:    1412618
LLC RFO       ACCESS:      87034  HIT:        553  MISS:      86481
LLC PREFETCH  ACCESS:          0  HIT:          0  MISS:          0
LLC WRITEBACK ACCESS:     219739  HIT:     216719  MISS:       3020
LLC PREFETCH  REQUESTED:          0  ISSUED:          0  USEFUL:          0  USELESS:          0
  real:          0  USELESS:          0
LLC AVERAGE MISS LATENCY: 115.833 cycles
Major fault: 0 Minor fault: 27079

*******************************************
CPU 0 STLB -- PC/IP Based Arbitrary Stride Prefetcher (ASP) final stats
*******************************************

-------------------------------------------
D-STLB MISSES: 71257
I-STLB MISSES: 1
-------------------------------------------

-------------------------------------------
PQ hits: 0
PQ misses: 71257
-------------------------------------------

DRAM Statistics
 CHANNEL 0
 RQ ROW_BUFFER_HIT:     707871  ROW_BUFFER_MISS:     791228
 DBUS_CONGESTED:      82961
 WQ ROW_BUFFER_HIT:      69206  ROW_BUFFER_MISS:     141147  FULL:          0

 AVG_CONGESTED_CYCLE: 4

CPU 0 Branch Prediction Accuracy: 85.9708% MPKI: 30.3935 Average ROB Occupancy at Mispredict: 9.79665

Branch types
NOT_BRANCH: 78335520 78.3355%
BRANCH_DIRECT_JUMP: 3686 0.003686%
BRANCH_INDIRECT: 1 1e-06%
BRANCH_CONDITIONAL: 21660579 21.6606%
BRANCH_DIRECT_CALL: 104 0.000104%
BRANCH_INDIRECT_CALL: 3 3e-06%
BRANCH_RETURN: 107 0.000107%
BRANCH_OTHER: 0 0%

