
*** ChampSim Multicore Out-of-Order Simulator ***

Warmup Instructions: 1000000
Simulation Instructions: 100000000
Number of CPUs: 1
LLC sets: 2048
LLC ways: 16
Off-chip DRAM Size: 4096 MB Channels: 1 Width: 64-bit Data Rate: 3200 MT/s

CPU 0 runs /home/sonqo/Desktop/Diplom/traces_gap/bfs-10.trace.gz
CPU 0 Bimodal branch predictor
CPU 0 STLB -- PC/IP Based Arbitrary Stride Prefetcher (ASP)

Warmup complete CPU 0 instructions: 1000001 cycles: 517683 (Simulation time: 0 hr 0 min 1 sec) 

Heartbeat CPU 0 instructions: 10000002 cycles: 30671079 heartbeat IPC: 0.32604 cumulative IPC: 0.298474 (Simulation time: 0 hr 0 min 12 sec) 
Heartbeat CPU 0 instructions: 20000000 cycles: 66339913 heartbeat IPC: 0.280357 cumulative IPC: 0.288656 (Simulation time: 0 hr 0 min 27 sec) 
Heartbeat CPU 0 instructions: 30000002 cycles: 101812709 heartbeat IPC: 0.281906 cumulative IPC: 0.286292 (Simulation time: 0 hr 0 min 43 sec) 
Heartbeat CPU 0 instructions: 40000003 cycles: 137255844 heartbeat IPC: 0.282142 cumulative IPC: 0.285217 (Simulation time: 0 hr 0 min 58 sec) 
Heartbeat CPU 0 instructions: 50000000 cycles: 172751074 heartbeat IPC: 0.281728 cumulative IPC: 0.284498 (Simulation time: 0 hr 1 min 16 sec) 
Heartbeat CPU 0 instructions: 60000001 cycles: 219303410 heartbeat IPC: 0.214812 cumulative IPC: 0.26967 (Simulation time: 0 hr 1 min 33 sec) 
Heartbeat CPU 0 instructions: 70000003 cycles: 275787161 heartbeat IPC: 0.177042 cumulative IPC: 0.250663 (Simulation time: 0 hr 1 min 51 sec) 
Heartbeat CPU 0 instructions: 80000002 cycles: 321109813 heartbeat IPC: 0.22064 cumulative IPC: 0.246419 (Simulation time: 0 hr 2 min 5 sec) 
Heartbeat CPU 0 instructions: 90000000 cycles: 333110380 heartbeat IPC: 0.833294 cumulative IPC: 0.267595 (Simulation time: 0 hr 2 min 12 sec) 
Heartbeat CPU 0 instructions: 100000000 cycles: 350541301 heartbeat IPC: 0.573693 cumulative IPC: 0.282838 (Simulation time: 0 hr 2 min 24 sec) 
Finished CPU 0 instructions: 100000000 cycles: 353553189 cumulative IPC: 0.282843 (Simulation time: 0 hr 2 min 25 sec) 

ChampSim completed all CPUs

Region of Interest Statistics

CPU 0 cumulative IPC: 0.282843 instructions: 100000000 cycles: 353553189
L1D TOTAL     ACCESS:   20942356  HIT:   17169097  MISS:    3773259
L1D LOAD      ACCESS:   18401123  HIT:   14720277  MISS:    3680846
L1D RFO       ACCESS:    2541233  HIT:    2448820  MISS:      92413
L1D PREFETCH  ACCESS:          0  HIT:          0  MISS:          0
L1D WRITEBACK ACCESS:          0  HIT:          0  MISS:          0
L1D PREFETCH  REQUESTED:          0  ISSUED:          0  USEFUL:          0  USELESS:          0
L1D AVERAGE MISS LATENCY: 68.2404 cycles
L1I TOTAL     ACCESS:   28781358  HIT:   28781306  MISS:         52
L1I LOAD      ACCESS:   28781358  HIT:   28781306  MISS:         52
L1I RFO       ACCESS:          0  HIT:          0  MISS:          0
L1I PREFETCH  ACCESS:          0  HIT:          0  MISS:          0
L1I WRITEBACK ACCESS:          0  HIT:          0  MISS:          0
L1I PREFETCH  REQUESTED:          0  ISSUED:          0  USEFUL:          0  USELESS:          0
L1I AVERAGE MISS LATENCY: 212.327 cycles
L2C TOTAL     ACCESS:    4003283  HIT:    2473643  MISS:    1529640
L2C LOAD      ACCESS:    3680898  HIT:    2238222  MISS:    1442676
L2C RFO       ACCESS:      92413  HIT:       5454  MISS:      86959
L2C PREFETCH  ACCESS:          0  HIT:          0  MISS:          0
L2C WRITEBACK ACCESS:     229972  HIT:     229967  MISS:          5
L2C PREFETCH  REQUESTED:          0  ISSUED:          0  USEFUL:          0  USELESS:          0
L2C AVERAGE MISS LATENCY: 137.177 cycles
ITLB TOTAL     ACCESS:   19829613  HIT:   19829612  MISS:          1
ITLB LOAD      ACCESS:   19829613  HIT:   19829612  MISS:          1
ITLB RFO       ACCESS:          0  HIT:          0  MISS:          0
ITLB PREFETCH  ACCESS:          0  HIT:          0  MISS:          0
ITLB WRITEBACK ACCESS:          0  HIT:          0  MISS:          0
ITLB PREFETCH  REQUESTED:          0  ISSUED:          0  USEFUL:          0  USELESS:          0
ITLB AVERAGE MISS LATENCY: 233 cycles
DTLB TOTAL     ACCESS:   21313211  HIT:   21231052  MISS:      82159
DTLB LOAD      ACCESS:   18717934  HIT:   18637842  MISS:      80092
DTLB RFO       ACCESS:    2595277  HIT:    2593210  MISS:       2067
DTLB PREFETCH  ACCESS:          0  HIT:          0  MISS:          0
DTLB WRITEBACK ACCESS:          0  HIT:          0  MISS:          0
DTLB PREFETCH  REQUESTED:          0  ISSUED:          0  USEFUL:          0  USELESS:          0
DTLB AVERAGE MISS LATENCY: 199.284 cycles
STLB TOTAL     ACCESS:      82160  HIT:      16010  MISS:      66150
STLB LOAD      ACCESS:      80093  HIT:      15160  MISS:      64933
STLB RFO       ACCESS:       2067  HIT:        850  MISS:       1217
STLB PREFETCH  ACCESS:          0  HIT:          0  MISS:          0
STLB WRITEBACK ACCESS:          0  HIT:          0  MISS:          0
STLB PREFETCH  REQUESTED:      18700  ISSUED:          0  USEFUL:       5138  USELESS:        310
STLB AVERAGE MISS LATENCY: 221.835 cycles
LLC TOTAL     ACCESS:    1749879  HIT:     247409  MISS:    1502470
LLC LOAD      ACCESS:    1442676  HIT:      29779  MISS:    1412897
LLC RFO       ACCESS:      86959  HIT:        474  MISS:      86485
LLC PREFETCH  ACCESS:          0  HIT:          0  MISS:          0
LLC WRITEBACK ACCESS:     220244  HIT:     217156  MISS:       3088
LLC PREFETCH  REQUESTED:          0  ISSUED:          0  USEFUL:          0  USELESS:          0
LLC AVERAGE MISS LATENCY: 120.374 cycles
Major fault: 0 Minor fault: 27079

*******************************************
CPU 0 STLB -- PC/IP Based Arbitrary Stride Prefetcher (ASP) final stats
*******************************************

-------------------------------------------
D-STLB MISSES: 66149
I-STLB MISSES: 1
-------------------------------------------

-------------------------------------------
PQ hits: 0
PQ misses: 66149
-------------------------------------------

DRAM Statistics
 CHANNEL 0
 RQ ROW_BUFFER_HIT:     641647  ROW_BUFFER_MISS:     857734
 DBUS_CONGESTED:      82132
 WQ ROW_BUFFER_HIT:      70125  ROW_BUFFER_MISS:     141133  FULL:          0

 AVG_CONGESTED_CYCLE: 4

CPU 0 Branch Prediction Accuracy: 85.9708% MPKI: 30.3935 Average ROB Occupancy at Mispredict: 9.80186

Branch types
NOT_BRANCH: 78335520 78.3355%
BRANCH_DIRECT_JUMP: 3686 0.003686%
BRANCH_INDIRECT: 1 1e-06%
BRANCH_CONDITIONAL: 21660579 21.6606%
BRANCH_DIRECT_CALL: 104 0.000104%
BRANCH_INDIRECT_CALL: 3 3e-06%
BRANCH_RETURN: 107 0.000107%
BRANCH_OTHER: 0 0%

