
*** ChampSim Multicore Out-of-Order Simulator ***

Warmup Instructions: 1000000
Simulation Instructions: 100000000
Number of CPUs: 1
LLC sets: 2048
LLC ways: 16
Off-chip DRAM Size: 4096 MB Channels: 1 Width: 64-bit Data Rate: 3200 MT/s

CPU 0 runs /home/sonqo/Desktop/Diplom/traces_gap/bfs-10.trace.gz
CPU 0 Bimodal branch predictor

Warmup complete CPU 0 instructions: 1000001 cycles: 517683 (Simulation time: 0 hr 0 min 0 sec) 

Heartbeat CPU 0 instructions: 10000002 cycles: 30667595 heartbeat IPC: 0.326077 cumulative IPC: 0.298508 (Simulation time: 0 hr 0 min 11 sec) 
Heartbeat CPU 0 instructions: 20000000 cycles: 66209653 heartbeat IPC: 0.281357 cumulative IPC: 0.289229 (Simulation time: 0 hr 0 min 25 sec) 
Heartbeat CPU 0 instructions: 30000002 cycles: 101552788 heartbeat IPC: 0.28294 cumulative IPC: 0.287029 (Simulation time: 0 hr 0 min 39 sec) 
Heartbeat CPU 0 instructions: 40000003 cycles: 136843468 heartbeat IPC: 0.283361 cumulative IPC: 0.286079 (Simulation time: 0 hr 0 min 53 sec) 
Heartbeat CPU 0 instructions: 50000000 cycles: 172183598 heartbeat IPC: 0.282964 cumulative IPC: 0.285438 (Simulation time: 0 hr 1 min 8 sec) 
Heartbeat CPU 0 instructions: 60000001 cycles: 218417816 heartbeat IPC: 0.21629 cumulative IPC: 0.270766 (Simulation time: 0 hr 1 min 23 sec) 
Heartbeat CPU 0 instructions: 70000003 cycles: 274512800 heartbeat IPC: 0.178269 cumulative IPC: 0.251829 (Simulation time: 0 hr 1 min 42 sec) 
Heartbeat CPU 0 instructions: 80000002 cycles: 317267108 heartbeat IPC: 0.233895 cumulative IPC: 0.249409 (Simulation time: 0 hr 1 min 55 sec) 
Heartbeat CPU 0 instructions: 90000000 cycles: 329125857 heartbeat IPC: 0.843259 cumulative IPC: 0.270839 (Simulation time: 0 hr 2 min 2 sec) 
Heartbeat CPU 0 instructions: 100000000 cycles: 346302482 heartbeat IPC: 0.582187 cumulative IPC: 0.286305 (Simulation time: 0 hr 2 min 14 sec) 
Finished CPU 0 instructions: 100000000 cycles: 349123587 cumulative IPC: 0.286432 (Simulation time: 0 hr 2 min 15 sec) 

ChampSim completed all CPUs

Region of Interest Statistics

CPU 0 cumulative IPC: 0.286432 instructions: 100000000 cycles: 349123587
L1D TOTAL     ACCESS:   20953545  HIT:   17180007  MISS:    3773538
L1D LOAD      ACCESS:   18402377  HIT:   14721253  MISS:    3681124
L1D RFO       ACCESS:    2551168  HIT:    2458754  MISS:      92414
L1D PREFETCH  ACCESS:          0  HIT:          0  MISS:          0
L1D WRITEBACK ACCESS:          0  HIT:          0  MISS:          0
L1D PREFETCH  REQUESTED:          0  ISSUED:          0  USEFUL:          0  USELESS:          0
L1D AVERAGE MISS LATENCY: 66.4458 cycles
L1I TOTAL     ACCESS:   28781000  HIT:   28780948  MISS:         52
L1I LOAD      ACCESS:   28781000  HIT:   28780948  MISS:         52
L1I RFO       ACCESS:          0  HIT:          0  MISS:          0
L1I PREFETCH  ACCESS:          0  HIT:          0  MISS:          0
L1I WRITEBACK ACCESS:          0  HIT:          0  MISS:          0
L1I PREFETCH  REQUESTED:          0  ISSUED:          0  USEFUL:          0  USELESS:          0
L1I AVERAGE MISS LATENCY: 212.327 cycles
L2C TOTAL     ACCESS:    4003298  HIT:    2473768  MISS:    1529530
L2C LOAD      ACCESS:    3681176  HIT:    2238625  MISS:    1442551
L2C RFO       ACCESS:      92414  HIT:       5440  MISS:      86974
L2C PREFETCH  ACCESS:          0  HIT:          0  MISS:          0
L2C WRITEBACK ACCESS:     229708  HIT:     229703  MISS:          5
L2C PREFETCH  REQUESTED:          0  ISSUED:          0  USEFUL:          0  USELESS:          0
L2C AVERAGE MISS LATENCY: 132.744 cycles
ITLB TOTAL     ACCESS:   19829242  HIT:   19829241  MISS:          1
ITLB LOAD      ACCESS:   19829242  HIT:   19829241  MISS:          1
ITLB RFO       ACCESS:          0  HIT:          0  MISS:          0
ITLB PREFETCH  ACCESS:          0  HIT:          0  MISS:          0
ITLB WRITEBACK ACCESS:          0  HIT:          0  MISS:          0
ITLB PREFETCH  REQUESTED:          0  ISSUED:          0  USEFUL:          0  USELESS:          0
ITLB AVERAGE MISS LATENCY: 233 cycles
DTLB TOTAL     ACCESS:   21317142  HIT:   21234985  MISS:      82157
DTLB LOAD      ACCESS:   18721931  HIT:   18641840  MISS:      80091
DTLB RFO       ACCESS:    2595211  HIT:    2593145  MISS:       2066
DTLB PREFETCH  ACCESS:          0  HIT:          0  MISS:          0
DTLB WRITEBACK ACCESS:          0  HIT:          0  MISS:          0
DTLB PREFETCH  REQUESTED:          0  ISSUED:          0  USEFUL:          0  USELESS:          0
DTLB AVERAGE MISS LATENCY: 213.397 cycles
STLB TOTAL     ACCESS:      82158  HIT:      10900  MISS:      71258
STLB LOAD      ACCESS:      80092  HIT:      10068  MISS:      70024
STLB RFO       ACCESS:       2066  HIT:        832  MISS:       1234
STLB PREFETCH  ACCESS:          0  HIT:          0  MISS:          0
STLB WRITEBACK ACCESS:          0  HIT:          0  MISS:          0
STLB PREFETCH  REQUESTED:          0  ISSUED:          0  USEFUL:          0  USELESS:          0
STLB AVERAGE MISS LATENCY: 221.749 cycles
LLC TOTAL     ACCESS:    1749306  HIT:     247199  MISS:    1502107
LLC LOAD      ACCESS:    1442551  HIT:      29950  MISS:    1412601
LLC RFO       ACCESS:      86974  HIT:        493  MISS:      86481
LLC PREFETCH  ACCESS:          0  HIT:          0  MISS:          0
LLC WRITEBACK ACCESS:     219781  HIT:     216756  MISS:       3025
LLC PREFETCH  REQUESTED:          0  ISSUED:          0  USEFUL:          0  USELESS:          0
LLC AVERAGE MISS LATENCY: 115.837 cycles
Major fault: 0 Minor fault: 27079

*******************************************
CPU 0 STLB -- L2-TLB Prefetcher final stats
*******************************************

-------------------------------------------
D-STLB MISSES: 71257
I-STLB MISSES: 1
-------------------------------------------

-------------------------------------------
PQ hits: 0
PQ misses: 71257
-------------------------------------------

DRAM Statistics
 CHANNEL 0
 RQ ROW_BUFFER_HIT:     707850  ROW_BUFFER_MISS:     791231
 DBUS_CONGESTED:      82935
 WQ ROW_BUFFER_HIT:      69243  ROW_BUFFER_MISS:     141181  FULL:          0

 AVG_CONGESTED_CYCLE: 4

CPU 0 Branch Prediction Accuracy: 85.9708% MPKI: 30.3935 Average ROB Occupancy at Mispredict: 9.79656

Branch types
NOT_BRANCH: 78335520 78.3355%
BRANCH_DIRECT_JUMP: 3686 0.003686%
BRANCH_INDIRECT: 1 1e-06%
BRANCH_CONDITIONAL: 21660579 21.6606%
BRANCH_DIRECT_CALL: 104 0.000104%
BRANCH_INDIRECT_CALL: 3 3e-06%
BRANCH_RETURN: 107 0.000107%
BRANCH_OTHER: 0 0%

