
*** ChampSim Multicore Out-of-Order Simulator ***

Warmup Instructions: 1000000
Simulation Instructions: 100000000
Number of CPUs: 1
LLC sets: 2048
LLC ways: 16
Off-chip DRAM Size: 4096 MB Channels: 1 Width: 64-bit Data Rate: 3200 MT/s

CPU 0 runs /home/sonqo/Desktop/Diplom/traces_gap/bfs-3.trace.gz
CPU 0 Bimodal branch predictor

Warmup complete CPU 0 instructions: 1000001 cycles: 517706 (Simulation time: 0 hr 0 min 0 sec) 

Heartbeat CPU 0 instructions: 10000000 cycles: 30821776 heartbeat IPC: 0.324446 cumulative IPC: 0.29699 (Simulation time: 0 hr 0 min 10 sec) 
Heartbeat CPU 0 instructions: 20000002 cycles: 73510495 heartbeat IPC: 0.234254 cumulative IPC: 0.2603 (Simulation time: 0 hr 0 min 24 sec) 
Heartbeat CPU 0 instructions: 30000001 cycles: 116506352 heartbeat IPC: 0.232581 cumulative IPC: 0.250024 (Simulation time: 0 hr 0 min 38 sec) 
Heartbeat CPU 0 instructions: 40000001 cycles: 159474223 heartbeat IPC: 0.232732 cumulative IPC: 0.24535 (Simulation time: 0 hr 0 min 52 sec) 
Heartbeat CPU 0 instructions: 50000000 cycles: 211139071 heartbeat IPC: 0.193555 cumulative IPC: 0.232645 (Simulation time: 0 hr 1 min 7 sec) 
Heartbeat CPU 0 instructions: 60000000 cycles: 269032480 heartbeat IPC: 0.172731 cumulative IPC: 0.219727 (Simulation time: 0 hr 1 min 22 sec) 
Heartbeat CPU 0 instructions: 70000000 cycles: 303471452 heartbeat IPC: 0.290369 cumulative IPC: 0.227758 (Simulation time: 0 hr 1 min 33 sec) 
Heartbeat CPU 0 instructions: 80000001 cycles: 314457756 heartbeat IPC: 0.910224 cumulative IPC: 0.25164 (Simulation time: 0 hr 1 min 39 sec) 
Heartbeat CPU 0 instructions: 90000001 cycles: 335522499 heartbeat IPC: 0.474727 cumulative IPC: 0.265668 (Simulation time: 0 hr 1 min 50 sec) 
Heartbeat CPU 0 instructions: 100000001 cycles: 378386238 heartbeat IPC: 0.233297 cumulative IPC: 0.261996 (Simulation time: 0 hr 2 min 6 sec) 
Finished CPU 0 instructions: 100000002 cycles: 382978449 cumulative IPC: 0.261111 (Simulation time: 0 hr 2 min 8 sec) 

ChampSim completed all CPUs

Region of Interest Statistics

CPU 0 cumulative IPC: 0.261111 instructions: 100000002 cycles: 382978449
L1D TOTAL     ACCESS:   21820557  HIT:   18505095  MISS:    3315462
L1D LOAD      ACCESS:   18164625  HIT:   15006181  MISS:    3158444
L1D RFO       ACCESS:    3655932  HIT:    3498914  MISS:     157018
L1D PREFETCH  ACCESS:          0  HIT:          0  MISS:          0
L1D WRITEBACK ACCESS:          0  HIT:          0  MISS:          0
L1D PREFETCH  REQUESTED:          0  ISSUED:          0  USEFUL:          0  USELESS:          0
  real:          0  fills:          0
L1D AVERAGE MISS LATENCY: 86.692 cycles
L1I TOTAL     ACCESS:   28565371  HIT:   28565317  MISS:         54
L1I LOAD      ACCESS:   28565371  HIT:   28565317  MISS:         54
L1I RFO       ACCESS:          0  HIT:          0  MISS:          0
L1I PREFETCH  ACCESS:          0  HIT:          0  MISS:          0
L1I WRITEBACK ACCESS:          0  HIT:          0  MISS:          0
L1I PREFETCH  REQUESTED:          0  ISSUED:          0  USEFUL:          0  USELESS:          0
  real:          0  fills:          0
L1I AVERAGE MISS LATENCY: 230.037 cycles
L2C TOTAL     ACCESS:    3738644  HIT:    1823171  MISS:    1915473
L2C LOAD      ACCESS:    3158498  HIT:    1393940  MISS:    1764558
L2C RFO       ACCESS:     157018  HIT:       6114  MISS:     150904
L2C PREFETCH  ACCESS:          0  HIT:          0  MISS:          0
L2C WRITEBACK ACCESS:     423128  HIT:     423117  MISS:         11
L2C PREFETCH  REQUESTED:          0  ISSUED:          0  USEFUL:          0  USELESS:          0
  real:          0  fills:          0
L2C AVERAGE MISS LATENCY: 128.382 cycles
ITLB TOTAL     ACCESS:   19463632  HIT:   19463631  MISS:          1
ITLB LOAD      ACCESS:   19463632  HIT:   19463631  MISS:          1
ITLB RFO       ACCESS:          0  HIT:          0  MISS:          0
ITLB PREFETCH  ACCESS:          0  HIT:          0  MISS:          0
ITLB WRITEBACK ACCESS:          0  HIT:          0  MISS:          0
ITLB PREFETCH  REQUESTED:          0  ISSUED:          0  USEFUL:          0  USELESS:          0
  real:          0  fills:          0
ITLB AVERAGE MISS LATENCY: 455 cycles
DTLB TOTAL     ACCESS:   21843162  HIT:   21715151  MISS:     128011
DTLB LOAD      ACCESS:   18119211  HIT:   17995698  MISS:     123513
DTLB RFO       ACCESS:    3723951  HIT:    3719453  MISS:       4498
DTLB PREFETCH  ACCESS:          0  HIT:          0  MISS:          0
DTLB WRITEBACK ACCESS:          0  HIT:          0  MISS:          0
DTLB PREFETCH  REQUESTED:          0  ISSUED:          0  USEFUL:          0  USELESS:          0
  real:          0  fills:          0
DTLB AVERAGE MISS LATENCY: 137.027 cycles
STLB TOTAL     ACCESS:     128012  HIT:      57955  MISS:      70057
STLB LOAD      ACCESS:     123514  HIT:      55655  MISS:      67859
STLB RFO       ACCESS:       4498  HIT:       2300  MISS:       2198
STLB PREFETCH  ACCESS:          0  HIT:          0  MISS:          0
STLB WRITEBACK ACCESS:          0  HIT:          0  MISS:          0
STLB PREFETCH  REQUESTED:          0  ISSUED:          0  USEFUL:          0  USELESS:          0
  real:          0  fills:          0
STLB AVERAGE MISS LATENCY: 223.487 cycles
LLC TOTAL     ACCESS:    2327832  HIT:     585820  MISS:    1742012
LLC LOAD      ACCESS:    1764558  HIT:     169257  MISS:    1595301
LLC RFO       ACCESS:     150904  HIT:       6923  MISS:     143981
LLC PREFETCH  ACCESS:          0  HIT:          0  MISS:          0
LLC WRITEBACK ACCESS:     412370  HIT:     409640  MISS:       2730
LLC PREFETCH  REQUESTED:          0  ISSUED:          0  USEFUL:          0  USELESS:          0
  real:          0  fills:          0
LLC AVERAGE MISS LATENCY: 120.518 cycles
Major fault: 0 Minor fault: 27438

*******************************************
CPU 0 STLB -- L2-TLB Prefetcher final stats
*******************************************

-------------------------------------------
D-STLB MISSES: 70056
I-STLB MISSES: 1
-------------------------------------------

-------------------------------------------
PQ hits: 0
PQ misses: 70056
-------------------------------------------

DRAM Statistics
 CHANNEL 0
 RQ ROW_BUFFER_HIT:     792750  ROW_BUFFER_MISS:     946520
 DBUS_CONGESTED:     201984
 WQ ROW_BUFFER_HIT:     148211  ROW_BUFFER_MISS:     219136  FULL:          0

 AVG_CONGESTED_CYCLE: 5

CPU 0 Branch Prediction Accuracy: 83.6327% MPKI: 34.7609 Average ROB Occupancy at Mispredict: 7.71851

Branch types
NOT_BRANCH: 78762028 78.762%
BRANCH_DIRECT_JUMP: 2041 0.002041%
BRANCH_INDIRECT: 1 1e-06%
BRANCH_CONDITIONAL: 21235645 21.2356%
BRANCH_DIRECT_CALL: 141 0.000141%
BRANCH_INDIRECT_CALL: 3 3e-06%
BRANCH_RETURN: 143 0.000143%
BRANCH_OTHER: 0 0%

